<?xml version="1.0" encoding="UTF-8"?>

<!-- generated on 12/24/19 11:34:50 by SUMO netconvert Version 0.32.0
<?xml version="1.0" encoding="UTF-8"?>

<configuration xmlns:xsi="http://www.w3.org/2001/XMLSchema-instance" xsi:noNamespaceSchemaLocation="http://sumo.dlr.de/xsd/netconvertConfiguration.xsd">

    <input>
        <osm-files value="map.osm"/>
    </input>

    <output>
        <output-file value="map.net.xml"/>
    </output>

    <projection>
        <proj.utm value="true"/>
    </projection>

</configuration>
-->

<net version="0.27" xmlns:xsi="http://www.w3.org/2001/XMLSchema-instance" xsi:noNamespaceSchemaLocation="http://sumo.dlr.de/xsd/net_file.xsd">

    <location netOffset="-628571.98,-4833233.79" convBoundary="0.00,0.00,2328.20,3581.45" origBoundary="-79.405167,43.640667,-79.376904,43.672957" projParameter="+proj=utm +zone=17 +ellps=WGS84 +datum=WGS84 +units=m +no_defs"/>

    <type id="highway.bridleway" priority="1" numLanes="1" speed="2.78" allow="pedestrian" oneway="1" width="2.00"/>
    <type id="highway.bus_guideway" priority="1" numLanes="1" speed="8.33" allow="bus" oneway="1"/>
    <type id="highway.cycleway" priority="1" numLanes="1" speed="5.56" allow="bicycle" oneway="0" width="1.00"/>
    <type id="highway.footway" priority="1" numLanes="1" speed="2.78" allow="pedestrian" oneway="1" width="2.00"/>
    <type id="highway.ford" priority="1" numLanes="1" speed="2.78" allow="army" oneway="0"/>
    <type id="highway.living_street" priority="3" numLanes="1" speed="2.78" disallow="tram rail_urban rail rail_electric ship" oneway="0"/>
    <type id="highway.motorway" priority="13" numLanes="2" speed="44.44" allow="private emergency authority army vip passenger hov taxi bus coach delivery truck trailer motorcycle evehicle custom1 custom2" oneway="1"/>
    <type id="highway.motorway_link" priority="12" numLanes="1" speed="22.22" allow="private emergency authority army vip passenger hov taxi bus coach delivery truck trailer motorcycle evehicle custom1 custom2" oneway="1"/>
    <type id="highway.path" priority="1" numLanes="1" speed="2.78" allow="bicycle pedestrian" oneway="1" width="2.00"/>
    <type id="highway.pedestrian" priority="1" numLanes="1" speed="2.78" allow="pedestrian" oneway="1" width="2.00"/>
    <type id="highway.primary" priority="9" numLanes="2" speed="27.78" disallow="tram rail_urban rail rail_electric ship" oneway="0"/>
    <type id="highway.primary_link" priority="8" numLanes="1" speed="22.22" disallow="tram rail_urban rail rail_electric ship" oneway="0"/>
    <type id="highway.raceway" priority="14" numLanes="2" speed="83.33" allow="vip" oneway="0"/>
    <type id="highway.residential" priority="4" numLanes="1" speed="13.89" disallow="tram rail_urban rail rail_electric ship" oneway="0"/>
    <type id="highway.secondary" priority="7" numLanes="2" speed="27.78" disallow="tram rail_urban rail rail_electric ship" oneway="0"/>
    <type id="highway.secondary_link" priority="6" numLanes="1" speed="22.22" disallow="tram rail_urban rail rail_electric ship" oneway="0"/>
    <type id="highway.service" priority="2" numLanes="1" speed="5.56" allow="delivery bicycle pedestrian" oneway="0"/>
    <type id="highway.services" priority="1" numLanes="1" speed="8.33" disallow="tram rail_urban rail rail_electric ship" oneway="0"/>
    <type id="highway.stairs" priority="1" numLanes="1" speed="1.39" allow="pedestrian" oneway="1" width="2.00"/>
    <type id="highway.step" priority="1" numLanes="1" speed="1.39" allow="pedestrian" oneway="1" width="2.00"/>
    <type id="highway.steps" priority="1" numLanes="1" speed="1.39" allow="pedestrian" oneway="1" width="2.00"/>
    <type id="highway.tertiary" priority="6" numLanes="1" speed="22.22" disallow="tram rail_urban rail rail_electric ship" oneway="0"/>
    <type id="highway.tertiary_link" priority="5" numLanes="1" speed="22.22" disallow="tram rail_urban rail rail_electric ship" oneway="0"/>
    <type id="highway.track" priority="1" numLanes="1" speed="5.56" disallow="tram rail_urban rail rail_electric ship" oneway="0"/>
    <type id="highway.trunk" priority="11" numLanes="2" speed="27.78" disallow="tram rail_urban rail rail_electric bicycle pedestrian ship" oneway="0"/>
    <type id="highway.trunk_link" priority="10" numLanes="1" speed="22.22" disallow="tram rail_urban rail rail_electric bicycle pedestrian ship" oneway="0"/>
    <type id="highway.unclassified" priority="5" numLanes="1" speed="13.89" disallow="tram rail_urban rail rail_electric ship" oneway="0"/>
    <type id="highway.unsurfaced" priority="1" numLanes="1" speed="8.33" disallow="tram rail_urban rail rail_electric ship" oneway="0"/>
    <type id="railway.light_rail" priority="15" numLanes="1" speed="27.78" allow="rail_urban" oneway="1"/>
    <type id="railway.preserved" priority="15" numLanes="1" speed="27.78" allow="rail" oneway="1"/>
    <type id="railway.rail" priority="15" numLanes="1" speed="83.33" allow="rail rail_electric" oneway="1"/>
    <type id="railway.subway" priority="15" numLanes="1" speed="27.78" allow="rail_urban" oneway="1"/>
    <type id="railway.tram" priority="15" numLanes="1" speed="13.89" allow="tram" oneway="1"/>

    <edge id=":1543546729_0" function="internal">
        <lane id=":1543546729_0_0" index="0" allow="rail_urban" speed="27.78" length="3.00" shape="1621.81,936.87 1620.53,939.58"/>
    </edge>
    <edge id=":1543546729_1" function="internal">
        <lane id=":1543546729_1_0" index="0" disallow="tram rail_urban rail rail_electric ship" speed="11.11" length="4.11" shape="1621.65,936.79 1623.58,941.02"/>
        <lane id=":1543546729_1_1" index="1" disallow="tram rail_urban rail rail_electric ship" speed="11.11" length="4.11" shape="1618.64,935.37 1620.59,939.61"/>
        <lane id=":1543546729_1_2" index="2" disallow="tram rail_urban rail rail_electric ship" speed="11.11" length="4.11" shape="1618.64,935.37 1617.60,938.20"/>
    </edge>
    <edge id=":1550992510_0" function="internal">
        <lane id=":1550992510_0_0" index="0" disallow="tram rail_urban rail rail_electric ship" speed="11.11" length="3.00" shape="1178.80,1015.15 1175.94,1014.26"/>
        <lane id=":1550992510_0_1" index="1" disallow="tram rail_urban rail rail_electric ship" speed="11.11" length="3.00" shape="1179.78,1011.99 1176.91,1011.11"/>
    </edge>
    <edge id=":1550992510_2" function="internal">
        <lane id=":1550992510_2_0" index="0" disallow="tram rail_urban rail rail_electric ship" speed="16.67" length="4.38" shape="1179.78,1011.99 1178.51,1011.46 1177.70,1010.76 1177.33,1009.91 1177.42,1008.91"/>
    </edge>
    <edge id=":1550992510_3" function="internal">
        <lane id=":1550992510_3_0" index="0" disallow="tram rail_urban rail rail_electric ship" speed="11.11" length="2.41" shape="1179.78,1011.99 1178.84,1010.84 1178.69,1009.93"/>
    </edge>
    <edge id=":1550992510_11" function="internal">
        <lane id=":1550992510_11_0" index="0" speed="11.11" length="2.41" shape="1178.69,1009.93 1179.32,1009.26 1180.75,1008.84"/>
    </edge>
    <edge id=":1550992510_4" function="internal">
        <lane id=":1550992510_4_0" index="0" disallow="tram rail_urban rail rail_electric ship" speed="16.67" length="4.17" shape="1180.62,1009.71 1181.72,1005.69"/>
    </edge>
    <edge id=":1550992510_5" function="internal">
        <lane id=":1550992510_5_0" index="0" disallow="tram rail_urban rail rail_electric ship" speed="16.67" length="4.52" shape="1180.62,1009.71 1180.14,1010.67 1179.36,1011.23 1178.28,1011.37 1176.91,1011.11"/>
    </edge>
    <edge id=":1550992510_6" function="internal">
        <lane id=":1550992510_6_0" index="0" disallow="tram rail_urban rail rail_electric ship" speed="22.22" length="2.41" shape="1180.62,1009.71 1179.52,1010.71 1178.62,1010.91"/>
    </edge>
    <edge id=":1550992510_12" function="internal">
        <lane id=":1550992510_12_0" index="0" speed="22.22" length="2.41" shape="1178.62,1010.91 1177.92,1010.31 1177.42,1008.91"/>
    </edge>
    <edge id=":1550992510_7" function="internal">
        <lane id=":1550992510_7_0" index="0" disallow="tram rail_urban rail rail_electric ship" speed="16.67" length="4.35" shape="1178.85,1004.80 1177.42,1008.91"/>
    </edge>
    <edge id=":1550992510_8" function="internal">
        <lane id=":1550992510_8_0" index="0" disallow="tram rail_urban rail rail_electric ship" speed="11.11" length="3.01" shape="1178.85,1004.80 1181.72,1005.69"/>
        <lane id=":1550992510_8_1" index="1" disallow="tram rail_urban rail rail_electric ship" speed="11.11" length="3.01" shape="1177.88,1007.95 1180.75,1008.84"/>
    </edge>
    <edge id=":1550992510_10" function="internal">
        <lane id=":1550992510_10_0" index="0" disallow="tram rail_urban rail rail_electric ship" speed="11.11" length="2.41" shape="1177.88,1007.95 1178.82,1009.11 1178.97,1010.02"/>
    </edge>
    <edge id=":1550992510_13" function="internal">
        <lane id=":1550992510_13_0" index="0" speed="11.11" length="2.41" shape="1178.97,1010.02 1178.33,1010.68 1176.91,1011.11"/>
    </edge>
    <edge id=":1895179989_0" function="internal">
        <lane id=":1895179989_0_0" index="0" disallow="tram rail_urban rail rail_electric ship" speed="11.11" length="5.15" shape="1635.54,899.22 1633.43,903.92"/>
    </edge>
    <edge id=":1895179989_1" function="internal">
        <lane id=":1895179989_1_0" index="0" disallow="tram rail_urban rail rail_electric ship" speed="11.11" length="2.51" shape="1635.54,899.22 1634.30,900.04 1633.38,900.11 1633.31,900.03"/>
    </edge>
    <edge id=":1895179989_5" function="internal">
        <lane id=":1895179989_5_0" index="0" speed="11.11" length="2.31" shape="1633.31,900.03 1632.78,899.41 1632.49,897.95"/>
    </edge>
    <edge id=":1895179989_2" function="internal">
        <lane id=":1895179989_2_0" index="0" disallow="tram rail_urban rail rail_electric ship" speed="11.11" length="4.87" shape="1627.50,901.04 1629.45,896.68"/>
        <lane id=":1895179989_2_1" index="1" disallow="tram rail_urban rail rail_electric ship" speed="11.11" length="4.87" shape="1630.46,902.48 1632.49,897.95"/>
    </edge>
    <edge id=":1895179989_4" function="internal">
        <lane id=":1895179989_4_0" index="0" disallow="tram rail_urban rail rail_electric ship" speed="11.11" length="2.41" shape="1630.46,902.48 1631.75,901.73 1632.67,901.72"/>
    </edge>
    <edge id=":1895179989_6" function="internal">
        <lane id=":1895179989_6_0" index="0" speed="11.11" length="2.41" shape="1632.67,901.72 1633.23,902.45 1633.43,903.92"/>
    </edge>
    <edge id=":1961514078_0" function="internal">
        <lane id=":1961514078_0_0" index="0" allow="delivery bicycle pedestrian" speed="5.56" length="5.18" shape="1361.53,864.13 1356.56,862.66"/>
    </edge>
    <edge id=":1961514078_1" function="internal">
        <lane id=":1961514078_1_0" index="0" allow="delivery bicycle pedestrian" speed="5.56" length="2.41" shape="1361.53,864.13 1360.56,863.01 1360.38,862.10"/>
    </edge>
    <edge id=":1961514078_4" function="internal">
        <lane id=":1961514078_4_0" index="0" speed="5.56" length="2.41" shape="1360.38,862.10 1360.99,861.42 1362.41,860.95"/>
    </edge>
    <edge id=":1961514078_2" function="internal">
        <lane id=":1961514078_2_0" index="0" allow="delivery bicycle pedestrian" speed="5.56" length="5.06" shape="1357.56,859.52 1362.41,860.95"/>
    </edge>
    <edge id=":1961514078_3" function="internal">
        <lane id=":1961514078_3_0" index="0" allow="delivery bicycle pedestrian" speed="5.56" length="2.41" shape="1357.56,859.52 1358.49,860.67 1358.63,861.59"/>
    </edge>
    <edge id=":1961514078_5" function="internal">
        <lane id=":1961514078_5_0" index="0" speed="5.56" length="2.41" shape="1358.63,861.59 1357.99,862.25 1356.56,862.66"/>
    </edge>
    <edge id=":1961514085_0" function="internal">
        <lane id=":1961514085_0_0" index="0" allow="delivery bicycle pedestrian" speed="5.56" length="5.11" shape="1377.13,868.46 1372.23,867.02"/>
    </edge>
    <edge id=":1961514085_1" function="internal">
        <lane id=":1961514085_1_0" index="0" allow="delivery bicycle pedestrian" speed="5.56" length="2.41" shape="1377.13,868.46 1376.21,867.29 1376.06,866.38"/>
    </edge>
    <edge id=":1961514085_4" function="internal">
        <lane id=":1961514085_4_0" index="0" speed="5.56" length="2.41" shape="1376.06,866.38 1376.71,865.72 1378.14,865.31"/>
    </edge>
    <edge id=":1961514085_2" function="internal">
        <lane id=":1961514085_2_0" index="0" allow="delivery bicycle pedestrian" speed="5.56" length="5.27" shape="1373.08,863.83 1378.14,865.31"/>
    </edge>
    <edge id=":1961514085_3" function="internal">
        <lane id=":1961514085_3_0" index="0" allow="delivery bicycle pedestrian" speed="5.56" length="2.41" shape="1373.08,863.83 1374.06,864.95 1374.25,865.85"/>
    </edge>
    <edge id=":1961514085_5" function="internal">
        <lane id=":1961514085_5_0" index="0" speed="5.56" length="2.41" shape="1374.25,865.85 1373.64,866.54 1372.23,867.02"/>
    </edge>
    <edge id=":1961514088_0" function="internal">
        <lane id=":1961514088_0_0" index="0" allow="delivery bicycle pedestrian" speed="5.56" length="5.23" shape="1341.41,928.80 1336.40,927.29"/>
    </edge>
    <edge id=":1961514088_1" function="internal">
        <lane id=":1961514088_1_0" index="0" allow="delivery bicycle pedestrian" speed="5.56" length="2.41" shape="1341.41,928.80 1340.44,927.67 1340.28,926.76"/>
    </edge>
    <edge id=":1961514088_4" function="internal">
        <lane id=":1961514088_4_0" index="0" speed="5.56" length="2.41" shape="1340.28,926.76 1340.90,926.08 1342.32,925.63"/>
    </edge>
    <edge id=":1961514088_2" function="internal">
        <lane id=":1961514088_2_0" index="0" allow="delivery bicycle pedestrian" speed="5.56" length="5.13" shape="1337.40,924.14 1342.32,925.63"/>
    </edge>
    <edge id=":1961514088_3" function="internal">
        <lane id=":1961514088_3_0" index="0" allow="delivery bicycle pedestrian" speed="5.56" length="2.41" shape="1337.40,924.14 1338.33,925.30 1338.48,926.22"/>
    </edge>
    <edge id=":1961514088_5" function="internal">
        <lane id=":1961514088_5_0" index="0" speed="5.56" length="2.41" shape="1338.48,926.22 1337.83,926.88 1336.40,927.29"/>
    </edge>
    <edge id=":1961514090_0" function="internal">
        <lane id=":1961514090_0_0" index="0" allow="delivery bicycle pedestrian" speed="5.56" length="5.03" shape="1357.17,933.49 1352.36,932.01"/>
    </edge>
    <edge id=":1961514090_1" function="internal">
        <lane id=":1961514090_1_0" index="0" allow="delivery bicycle pedestrian" speed="5.56" length="2.41" shape="1357.17,933.49 1356.24,932.33 1356.09,931.42"/>
    </edge>
    <edge id=":1961514090_4" function="internal">
        <lane id=":1961514090_4_0" index="0" speed="5.56" length="2.41" shape="1356.09,931.42 1356.74,930.75 1358.17,930.34"/>
    </edge>
    <edge id=":1961514090_2" function="internal">
        <lane id=":1961514090_2_0" index="0" allow="delivery bicycle pedestrian" speed="5.56" length="5.09" shape="1353.30,928.84 1358.17,930.34"/>
    </edge>
    <edge id=":1961514090_3" function="internal">
        <lane id=":1961514090_3_0" index="0" allow="delivery bicycle pedestrian" speed="5.56" length="2.41" shape="1353.30,928.84 1354.25,929.99 1354.41,930.90"/>
    </edge>
    <edge id=":1961514090_5" function="internal">
        <lane id=":1961514090_5_0" index="0" speed="5.56" length="2.41" shape="1354.41,930.90 1353.78,931.57 1352.36,932.01"/>
    </edge>
    <edge id=":21436489_0" function="internal">
        <lane id=":21436489_0_0" index="0" disallow="tram rail_urban rail rail_electric ship" speed="11.11" length="4.82" shape="880.16,518.94 879.21,517.80 879.04,516.89 879.67,516.22 881.09,515.78"/>
    </edge>
    <edge id=":21436490_0" function="internal">
        <lane id=":21436490_0_0" index="0" disallow="tram rail_urban rail rail_electric ship" speed="16.67" length="4.33" shape="1088.14,588.08 1089.63,584.02"/>
    </edge>
    <edge id=":21436490_1" function="internal">
        <lane id=":21436490_1_0" index="0" disallow="tram rail_urban rail rail_electric ship" speed="11.11" length="1.96" shape="1089.16,584.94 1088.24,583.77 1088.17,583.31"/>
    </edge>
    <edge id=":21436490_12" function="internal">
        <lane id=":21436490_12_0" index="0" speed="11.11" length="2.86" shape="1088.17,583.31 1088.10,582.86 1088.75,582.20 1090.18,581.80"/>
    </edge>
    <edge id=":21436490_2" function="internal">
        <lane id=":21436490_2_0" index="0" disallow="tram rail_urban rail rail_electric ship" speed="16.67" length="4.21" shape="1090.02,582.71 1091.19,578.66"/>
    </edge>
    <edge id=":21436490_3" function="internal">
        <lane id=":21436490_3_0" index="0" disallow="tram rail_urban rail rail_electric ship" speed="22.22" length="1.37" shape="1090.02,582.71 1089.63,584.02"/>
    </edge>
    <edge id=":21436490_4" function="internal">
        <lane id=":21436490_4_0" index="0" disallow="tram rail_urban rail rail_electric ship" speed="22.22" length="7.27" shape="1090.02,582.71 1089.12,585.03 1088.04,586.55 1086.78,587.26 1085.32,587.18"/>
    </edge>
    <edge id=":21436490_5" function="internal">
        <lane id=":21436490_5_0" index="0" disallow="tram rail_urban rail rail_electric ship" speed="22.22" length="2.41" shape="1090.02,582.71 1088.90,583.68 1087.99,583.85"/>
    </edge>
    <edge id=":21436490_13" function="internal">
        <lane id=":21436490_13_0" index="0" speed="22.22" length="2.41" shape="1087.99,583.85 1087.31,583.23 1086.84,581.82"/>
    </edge>
    <edge id=":21436490_6" function="internal">
        <lane id=":21436490_6_0" index="0" disallow="tram rail_urban rail rail_electric ship" speed="16.67" length="7.48" shape="1083.29,582.16 1084.00,581.25 1085.38,580.89 1087.44,581.08 1090.18,581.80"/>
    </edge>
    <edge id=":21436490_7" function="internal">
        <lane id=":21436490_7_0" index="0" disallow="tram rail_urban rail rail_electric ship" speed="22.22" length="3.56" shape="1083.29,582.16 1086.32,584.03"/>
    </edge>
    <edge id=":21436490_8" function="internal">
        <lane id=":21436490_8_0" index="0" disallow="tram rail_urban rail rail_electric ship" speed="22.22" length="3.57" shape="1083.29,582.16 1086.84,581.82"/>
    </edge>
    <edge id=":21436490_9" function="internal">
        <lane id=":21436490_9_0" index="0" disallow="tram rail_urban rail rail_electric ship" speed="22.22" length="2.41" shape="1086.46,583.09 1087.60,582.13 1088.51,581.97"/>
    </edge>
    <edge id=":21436490_14" function="internal">
        <lane id=":21436490_14_0" index="0" speed="22.22" length="2.41" shape="1088.51,581.97 1089.18,582.60 1089.63,584.02"/>
    </edge>
    <edge id=":21436490_10" function="internal">
        <lane id=":21436490_10_0" index="0" disallow="tram rail_urban rail rail_electric ship" speed="22.22" length="4.33" shape="1088.30,577.74 1086.84,581.82"/>
    </edge>
    <edge id=":21436490_11" function="internal">
        <lane id=":21436490_11_0" index="0" disallow="tram rail_urban rail rail_electric ship" speed="22.22" length="2.41" shape="1087.31,580.88 1088.24,582.04 1088.38,582.95"/>
    </edge>
    <edge id=":21436490_15" function="internal">
        <lane id=":21436490_15_0" index="0" speed="22.22" length="2.41" shape="1088.38,582.95 1087.74,583.62 1086.32,584.03"/>
    </edge>
    <edge id=":2401060263_0" function="internal">
        <lane id=":2401060263_0_0" index="0" allow="delivery bicycle pedestrian" speed="9.73" length="4.74" shape="1612.07,826.18 1610.71,825.92 1609.63,826.12 1608.83,826.77 1608.31,827.87"/>
    </edge>
    <edge id=":2401060263_1" function="internal">
        <lane id=":2401060263_1_0" index="0" disallow="tram rail_urban rail rail_electric ship" speed="13.89" length="9.50" shape="1612.07,826.18 1603.04,823.24"/>
    </edge>
    <edge id=":2401060263_2" function="internal">
        <lane id=":2401060263_2_0" index="0" disallow="tram rail_urban rail rail_electric ship" speed="9.73" length="4.83" shape="1605.14,826.97 1605.30,825.69 1605.01,824.65 1604.25,823.83 1603.04,823.24"/>
    </edge>
    <edge id=":2401060263_3" function="internal">
        <lane id=":2401060263_3_0" index="0" allow="delivery bicycle pedestrian" speed="5.56" length="4.82" shape="1605.14,826.97 1606.27,826.00 1607.18,825.83 1607.86,826.45 1608.31,827.87"/>
    </edge>
    <edge id=":2401060264_0" function="internal">
        <lane id=":2401060264_0_0" index="0" allow="delivery bicycle pedestrian" speed="5.56" length="5.46" shape="1608.26,828.06 1606.62,833.27"/>
    </edge>
    <edge id=":2401060264_1" function="internal">
        <lane id=":2401060264_1_0" index="0" allow="delivery bicycle pedestrian" speed="5.56" length="2.51" shape="1608.26,828.06 1607.13,829.03 1606.22,829.20 1606.14,829.13"/>
    </edge>
    <edge id=":2401060264_4" function="internal">
        <lane id=":2401060264_4_0" index="0" speed="5.56" length="2.31" shape="1606.14,829.13 1605.54,828.58 1605.08,827.16"/>
    </edge>
    <edge id=":2401060264_2" function="internal">
        <lane id=":2401060264_2_0" index="0" allow="delivery bicycle pedestrian" speed="5.56" length="5.27" shape="1603.51,832.19 1605.08,827.16"/>
    </edge>
    <edge id=":2401060264_3" function="internal">
        <lane id=":2401060264_3_0" index="0" allow="delivery bicycle pedestrian" speed="5.56" length="2.41" shape="1603.51,832.19 1604.69,831.29 1605.61,831.17"/>
    </edge>
    <edge id=":2401060264_5" function="internal">
        <lane id=":2401060264_5_0" index="0" speed="5.56" length="2.41" shape="1605.61,831.17 1606.25,831.83 1606.62,833.27"/>
    </edge>
    <edge id=":2401060265_0" function="internal">
        <lane id=":2401060265_0_0" index="0" allow="delivery bicycle pedestrian" speed="5.56" length="5.07" shape="1601.02,859.20 1599.63,858.95 1598.50,859.19 1597.62,859.92 1597.00,861.14"/>
    </edge>
    <edge id=":2401060265_1" function="internal">
        <lane id=":2401060265_1_0" index="0" allow="delivery bicycle pedestrian" speed="5.56" length="10.43" shape="1601.02,859.20 1598.44,857.94 1596.91,856.16 1596.41,853.87 1596.96,851.05"/>
    </edge>
    <edge id=":2401060265_2" function="internal">
        <lane id=":2401060265_2_0" index="0" allow="delivery bicycle pedestrian" speed="5.56" length="4.82" shape="1601.02,859.20 1600.09,858.03 1599.95,857.12 1600.60,856.46 1602.03,856.06"/>
    </edge>
    <edge id=":2401060265_3" function="internal">
        <lane id=":2401060265_3_0" index="0" allow="delivery bicycle pedestrian" speed="5.56" length="5.02" shape="1600.08,852.13 1599.81,853.49 1600.05,854.60 1600.79,855.45 1602.03,856.06"/>
    </edge>
    <edge id=":2401060265_4" function="internal">
        <lane id=":2401060265_4_0" index="0" allow="delivery bicycle pedestrian" speed="5.56" length="9.52" shape="1600.08,852.13 1597.00,861.14"/>
    </edge>
    <edge id=":2401060265_5" function="internal">
        <lane id=":2401060265_5_0" index="0" allow="delivery bicycle pedestrian" speed="5.56" length="4.82" shape="1600.08,852.13 1598.89,853.03 1597.98,853.15 1597.33,852.49 1596.96,851.05"/>
    </edge>
    <edge id=":2401060265_6" function="internal">
        <lane id=":2401060265_6_0" index="0" allow="delivery bicycle pedestrian" speed="5.56" length="9.55" shape="1593.87,860.09 1596.96,851.05"/>
    </edge>
    <edge id=":2401060265_7" function="internal">
        <lane id=":2401060265_7_0" index="0" allow="delivery bicycle pedestrian" speed="5.56" length="10.35" shape="1593.87,860.09 1595.14,857.58 1596.92,856.07 1599.22,855.57 1602.03,856.06"/>
    </edge>
    <edge id=":2401060265_8" function="internal">
        <lane id=":2401060265_8_0" index="0" allow="delivery bicycle pedestrian" speed="5.56" length="4.82" shape="1593.87,860.09 1595.05,859.18 1595.96,859.05 1596.61,859.71 1597.00,861.14"/>
    </edge>
    <edge id=":2401060266_0" function="internal">
        <lane id=":2401060266_0_0" index="0" allow="delivery bicycle pedestrian" speed="5.56" length="4.46" shape="1589.13,884.58 1587.73,888.82"/>
    </edge>
    <edge id=":2401060266_1" function="internal">
        <lane id=":2401060266_1_0" index="0" allow="delivery bicycle pedestrian" speed="5.56" length="2.41" shape="1589.13,884.58 1587.96,885.49 1587.04,885.62"/>
    </edge>
    <edge id=":2401060266_4" function="internal">
        <lane id=":2401060266_4_0" index="0" speed="5.56" length="2.41" shape="1587.04,885.62 1586.39,884.97 1586.01,883.53"/>
    </edge>
    <edge id=":2401060266_2" function="internal">
        <lane id=":2401060266_2_0" index="0" allow="delivery bicycle pedestrian" speed="5.56" length="4.50" shape="1584.59,887.81 1586.01,883.53"/>
    </edge>
    <edge id=":2401060266_3" function="internal">
        <lane id=":2401060266_3_0" index="0" allow="delivery bicycle pedestrian" speed="5.56" length="2.41" shape="1584.59,887.81 1585.76,886.88 1586.67,886.75"/>
    </edge>
    <edge id=":2401060266_5" function="internal">
        <lane id=":2401060266_5_0" index="0" speed="5.56" length="2.41" shape="1586.67,886.75 1587.33,887.39 1587.73,888.82"/>
    </edge>
    <edge id=":2401060267_0" function="internal">
        <lane id=":2401060267_0_0" index="0" disallow="tram rail_urban rail rail_electric ship" speed="8.34" length="4.55" shape="1587.67,889.01 1587.52,890.13 1587.83,891.06 1588.61,891.80 1589.86,892.37"/>
    </edge>
    <edge id=":2401060267_1" function="internal">
        <lane id=":2401060267_1_0" index="0" allow="delivery bicycle pedestrian" speed="5.56" length="4.82" shape="1587.67,889.01 1586.51,889.94 1585.60,890.08 1584.94,889.43 1584.53,888.00"/>
    </edge>
    <edge id=":2401060267_2" function="internal">
        <lane id=":2401060267_2_0" index="0" allow="delivery bicycle pedestrian" speed="8.34" length="4.56" shape="1580.80,889.47 1582.14,889.74 1583.21,889.58 1584.01,889.00 1584.53,888.00"/>
    </edge>
    <edge id=":2401060267_3" function="internal">
        <lane id=":2401060267_3_0" index="0" disallow="tram rail_urban rail rail_electric ship" speed="11.11" length="9.51" shape="1580.80,889.47 1589.86,892.37"/>
        <lane id=":2401060267_3_1" index="1" disallow="tram rail_urban rail rail_electric ship" speed="11.11" length="9.51" shape="1579.79,892.61 1588.86,895.51"/>
        <lane id=":2401060267_3_2" index="2" disallow="tram rail_urban rail rail_electric ship" speed="11.11" length="9.51" shape="1578.78,895.76 1587.86,898.66"/>
    </edge>
    <edge id=":2426111581_0" function="internal">
        <lane id=":2426111581_0_0" index="0" allow="delivery bicycle pedestrian" speed="5.56" length="5.59" shape="1765.60,575.37 1760.25,573.74"/>
    </edge>
    <edge id=":2426111581_1" function="internal">
        <lane id=":2426111581_1_0" index="0" allow="delivery bicycle pedestrian" speed="5.56" length="2.41" shape="1765.60,575.37 1764.66,574.22 1764.50,573.31"/>
    </edge>
    <edge id=":2426111581_4" function="internal">
        <lane id=":2426111581_4_0" index="0" speed="5.56" length="2.41" shape="1764.50,573.31 1765.14,572.64 1766.56,572.21"/>
    </edge>
    <edge id=":2426111581_2" function="internal">
        <lane id=":2426111581_2_0" index="0" allow="delivery bicycle pedestrian" speed="5.56" length="5.59" shape="1761.21,570.59 1766.56,572.21"/>
    </edge>
    <edge id=":2426111581_3" function="internal">
        <lane id=":2426111581_3_0" index="0" allow="delivery bicycle pedestrian" speed="5.56" length="2.41" shape="1761.21,570.59 1762.16,571.74 1762.31,572.65"/>
    </edge>
    <edge id=":2426111581_5" function="internal">
        <lane id=":2426111581_5_0" index="0" speed="5.56" length="2.41" shape="1762.31,572.65 1761.68,573.31 1760.25,573.74"/>
    </edge>
    <edge id=":2486918245_0" function="internal">
        <lane id=":2486918245_0_0" index="0" disallow="tram rail_urban rail rail_electric ship" speed="18.05" length="0.30" shape="1554.15,580.20 1553.86,580.10"/>
        <lane id=":2486918245_0_1" index="1" disallow="tram rail_urban rail rail_electric ship" speed="18.05" length="0.30" shape="1555.18,577.07 1554.90,576.97"/>
        <lane id=":2486918245_0_2" index="2" disallow="tram rail_urban rail rail_electric ship" speed="18.05" length="0.30" shape="1556.22,573.93 1555.94,573.84"/>
    </edge>
    <edge id=":2486918245_3" function="internal">
        <lane id=":2486918245_3_0" index="0" disallow="tram rail_urban rail rail_electric ship" speed="22.22" length="2.41" shape="1556.22,573.93 1555.31,572.76 1555.17,571.85"/>
    </edge>
    <edge id=":2486918245_6" function="internal">
        <lane id=":2486918245_6_0" index="0" speed="22.22" length="2.41" shape="1555.17,571.85 1555.83,571.20 1557.26,570.80"/>
    </edge>
    <edge id=":2486918245_4" function="internal">
        <lane id=":2486918245_4_0" index="0" disallow="tram rail_urban rail rail_electric ship" speed="18.05" length="0.29" shape="1556.98,570.71 1557.26,570.80"/>
    </edge>
    <edge id=":2486918245_5" function="internal">
        <lane id=":2486918245_5_0" index="0" disallow="tram rail_urban rail rail_electric ship" speed="13.89" length="2.41" shape="1556.98,570.71 1557.89,571.88 1558.03,572.80"/>
    </edge>
    <edge id=":2486918245_7" function="internal">
        <lane id=":2486918245_7_0" index="0" speed="13.89" length="2.41" shape="1558.03,572.80 1557.37,573.45 1555.94,573.84"/>
    </edge>
    <edge id=":25628769_0" function="internal">
        <lane id=":25628769_0_0" index="0" disallow="tram rail_urban rail rail_electric ship" speed="22.22" length="4.82" shape="1178.34,292.55 1179.49,291.60 1180.39,291.44 1181.07,292.07 1181.51,293.49"/>
    </edge>
    <edge id=":26240563_0" function="internal">