<?xml version="1.0" encoding="UTF-8"?>

<!-- generated on 12/24/19 11:38:28 by SUMO duarouter Version 0.32.0
<?xml version="1.0" encoding="UTF-8"?>

<configuration xmlns:xsi="http://www.w3.org/2001/XMLSchema-instance" xsi:noNamespaceSchemaLocation="http://sumo.dlr.de/xsd/duarouterConfiguration.xsd">

    <input>
        <net-file value="map.net.xml"/>
        <route-files value="trips.trips.xml"/>
    </input>

    <output>
        <output-file value="map.rou.xml"/>
        <alternatives-output value="map.rou.alt.xml"/>
    </output>

    <processing>
        <ignore-errors value="true"/>
    </processing>

    <time>
        <begin value="0"/>
        <end value="100.0"/>
    </time>

    <report>
        <no-warnings value="true"/>
        <no-step-log value="true"/>
    </report>

</configuration>
-->

<routes xmlns:xsi="http://www.w3.org/2001/XMLSchema-instance" xsi:noNamespaceSchemaLocation="http://sumo.dlr.de/xsd/routes_file.xsd">
    <vehicle id="0" depart="0.00">
        <route edges="30775361#4 30775361#5 -690950215#3 -690950215#2 -690950215#1 -690950215#0 -446810241#2 -446810241#1 -446810241#0 61429676#0 61429676#1 34121683#0 34121683#1 34121627#0 34121627#1 -34121627#1"/>
    </vehicle>
    <vehicle id="1" depart="1.00">
        <route edges="141693460#3 141693460#4 -34587650#1 -34587650#0 -553562814#6 -553562814#5 -553562814#4 -553562814#3 -553562814#2 -553562814#1 -553562814#0 -4674904#5 -4674904#4 -4674904#3 -4674904#2 -4674904#1 -4674904#0 -690950215#3 -690950215#2 -690950215#1 -690950215#0 -446810241#2 -446810241#1 -446810241#0 -61429675#2 -61429675#1 -61429675#0 -61429670#5 -61429670#4 -61429670#3 -61429670#2 -61429670#1 -61429670#0 -4674907#2 -4674907#1"/>
    </vehicle>
    <vehicle id="2" depart="2.00">
        <route edges="-33243155#10 -33243155#9 -33243155#8 -33243155#7 -33243155#6 -33243155#5 -33243155#4 -33243155#3 -33243155#2 -33243155#1 -33243155#0 -5085196#3 -5085196#2 -5085196#1 -5085196#0 -34121627#1"/>
    </vehicle>
    <vehicle id="3" depart="3.00">
        <route edges="5090442#12 -5090442#12 -5090442#11 -5090442#10 -5090442#9 -5090442#8 -5090442#7 -5090442#6 -5090442#5 745505114#0 745505114#1"/>
    </vehicle>
    <vehicle id="4" depart="4.00">
        <route edges="83071003#0 83071003#1"/>
    </vehicle>
    <vehicle id="5" depart="5.00">
        <route edges="-61429675#0 61429675#0 61429675#1 61429675#2 -446810240#2 446810240#2 61429676#0 61429676#1 34121683#0 34121683#1 34121685#0 34121685#1 34121685#2 34121685#3 34121685#4 34121685#5 -241014751#3 -241014751#2 -241014751#1 -241014751#0 -61429673#1 -61429673#0 34121618#0 34121618#1 -34121618#1"/>
    </vehicle>
    <vehicle id="7" depart="7.00">
        <route edges="34121685#4 -34121685#4 7969165#0 7969165#1 7969165#2 4674946#0"/>
    </vehicle>
    <vehicle id="8" depart="8.00">
        <route edges="21674178#1 21674178#2 36355963#0 36355963#1 36355963#2 133658685#0 133658685#1 133658685#2 133658685#3 133658685#4 133658685#5 133658685#6 133658685#7 33243155#0 33243155#1 33243155#2 33243155#3 33243155#4 33243155#5 33243155#6 33243155#7 33243155#8 -4674874#6 -4674874#5 -4674874#4 -4674874#3 -4674874#2 -4674874#1 -4674874#0 -5090442#6 5090442#6"/>
    </vehicle>
    <vehicle id="9" depart="9.00">
        <route edges="-4674904#1 -4674904#0 553562816#0 553562816#1 553562816#2 553562816#3 553562816#4 553562816#5 -5090442#9 -5090442#8 -5090442#7 4674874#0 4674874#1 4674874#2 4674874#3 4674874#4 4674874#5 4674874#6 33243155#9 33243155#10 33243155#11 33243155#12 553564802#4 553564802#5"/>
    </vehicle>
    <vehicle id="10" depart="10.00">
        <route edges="-34121627#1 -34121627#0 -34121683#1 -34121683#0"/>
    </vehicle>
    <vehicle id="11" depart="11.00">
        <route edges="553564802#5 553564802#6 553564802#7 745505114#0 745505114#1 745505114#2 745505114#3 -4674904#5 -4674904#4 4674904#4"/>
    </vehicle>
    <vehicle id="13" depart="13.00">
        <route edges="34121685#2 -34121685#2 -34121685#1 -34121685#0 -34121683#1 -34121683#0 -61429676#1 -61429676#0 446810241#0 446810241#1 446810241#2 690950215#0 690950215#1"/>
    </vehicle>
    <vehicle id="14" depart="14.00">
        <route edges="6694701#1 -6694701#1 -6694701#0 496548134#0 496548134#1 61429673#0 61429673#1 241014751#0 241014751#1 -241014751#1"/>
    </vehicle>
    <vehicle id="15" depart="15.00">
        <route edges="34587650#1 -34587650#1 -34587650#0 -553562814#6 -553562814#5 -553562814#4 -553562814#3 -553562814#2 -553562814#1 -553562814#0 -4674904#5 -4674904#4 -4674904#3 -4674904#2 -4674904#1 -4674904#0 -690950215#3 -690950215#2 -690950215#1 -690950215#0 -446810241#2 -446810241#1 -446810241#0 61429676#0 61429676#1 34121683#0 34121683#1 34121685#0 34121685#1 34121685#2 34121685#3 34121685#4"/>
    </vehicle>
    <vehicle id="16" depart="16.00">
        <route edges="-141693460#3 -141693460#2 5090442#0 5090442#1 5090442#2 5090442#3 5090442#4 5090442#5 5090442#6 4674874#0 4674874#1 4674874#2 4674874#3 4674874#4 4674874#5 4674874#6 4674874#7 4674874#8 4674874#9 4674874#10 4674874#11 292021138#3 292021138#4 292021138#5 292021138#6 314651045#0 314651045#1 314651045#2 314651045#3 36355963#0 36355963#1 36355963#2 542553252#0 542553252#1 542553252#2 458513996#0 458513996#1 458513996#2 458513996#3 219905382#0 219905382#1"/>
    </vehicle>
    <vehicle id="17" depart="17.00">
        <route edges="553562816#13 553562816#14 553564807#0 553564807#1 553564807#2 133658685#4 133658685#5 133658685#6 133658685#7 33243155#0 33243155#1 33243155#2 33243155#3 33243155#4 33243155#5 33243155#6 33243155#7 33243155#8 -4674874#6 -4674874#5 -4674874#4 -4674874#3 -4674874#2 -4674874#1 -4674874#0 -5090442#6 -5090442#5 -5090442#4 -5090442#3 -5090442#2 -5090442#1 -5090442#0 -141693460#1 -141693460#0"/>
    </vehicle>
    <vehicle id="20" depart="20.00">
        <route edges="34121617#2 693359748#0 693359748#1 61429673#0 61429673#1 241014751#0 241014751#1 241014751#2 241014751#3 -34121685#5 -34121685#4 7969165#0 7969165#1 7969165#2 4674946#0 4674946#1 458454045 446810240#0 446810240#1 446810240#2 -61429675#2 -61429675#1 -61429675#0 -61429670#5 -61429670#4 -61429670#3 -61429670#2 61429670#2"/>
    </vehicle>
    <vehicle id="21" depart="21.00">
        <route edges="-5084883#1 -5084883#0 -34121685#5 -34121685#4 7969165#0 7969165#1 7969165#2 4674946#0 4674946#1 458454045 446810240#0 446810240#1 446810240#2 446810241#0 446810241#1 446810241#2 690950215#0 690950215#1 690950215#2 690950215#3 4674904#0 4674904#1 4674904#2 4674904#3 4674904#4 4674904#5 553562814#0 553562814#1 553562814#2 553562814#3 553562814#4 553562814#5 553562814#6 -34614465#3"/>
    </vehicle>
    <vehicle id="22" depart="22.00">
        <route edges="-5085196#2 5085196#2 5085196#3 33243155#0 33243155#1 33243155#2 33243155#3 553562816#10 553562816#11 553562816#12 553562816#13 553562816#14 314651045#0 314651045#1 314651045#2 314651045#3 314651045#4 314651045#5 314651045#6 314651045#7 217103554#0 217103554#1"/>
    </vehicle>
    <vehicle id="23" depart="23.00">
        <route edges="-251326820#1 -251326820#0 219905382#0 219905382#1 496548132 496548134#0 496548134#1 61429673#0 61429673#1 241014751#0 241014751#1 241014751#2 241014751#3 -34121685#5 -34121685#4 7969165#0 7969165#1 7969165#2 4674946#0 4674946#1 458454045 446810240#0 446810240#1 446810240#2 446810241#0 446810241#1 446810241#2 690950215#0 690950215#1 690950215#2 690950215#3 553562816#0 553562816#1 553562816#2"/>
    </vehicle>
    <vehicle id="24" depart="24.00">
        <route edges="61511324#1 61511324#2 61511324#3 500300650#3 500300650#4 500300650#5 458454045 446810240#0 446810240#1 446810240#2 61429676#0 61429676#1 34121683#0 34121683#1 34121685#0 -34121685#0 -34121684#3 -34121684#2 -34121684#1 -34121684#0 -5090442#12 -5090442#11 -5090442#10 -5090442#9 -5090442#8 -5090442#7 4674874#0 4674874#1 4674874#2 4674874#3 4674874#4 4674874#5 4674874#6 4674874#7 4674874#8 4674874#9 4674874#10 4674874#11 292021138#3 292021138#4"/>
    </vehicle>
    <vehicle id="25" depart="25.00">
        <route edges="-6694729#2 -6694729#1 -6694729#0 -4674907#2 -4674907#1 -4674907#0 30775361#2 30775361#3 30775361#4 30775361#5 553562816#0 553562816#1 553562816#2 553562816#3 553562816#4 553562816#5 553562816#6 553562816#7 553562816#8 553562816#9 553562816#10 553562816#11"/>
    </vehicle>
    <vehicle id="26" depart="26.00">
        <route edges="219905382#1 496548132 6694701#0 6694701#1 61430499#0"/>
    </vehicle>
    <vehicle id="27" depart="27.00">
        <route edges="-458513995#1 458513995#1 458513996#0 -458513996#0 -542553252#2 -542553252#1 -542553252#0 133658685#0 133658685#1 133658685#2 133658685#3 133658685#4 133658685#5 133658685#6 133658685#7 133658685#8 133658685#9 133658685#10 34121684#0 34121684#1 34121684#2 34121684#3 -34121683#1 -34121683#0 -61429676#1 -61429676#0 446810241#0 446810241#1 446810241#2 690950215#0 690950215#1 -690950215#1"/>
    </vehicle>
    <vehicle id="28" depart="28.00">
        <route edges="141693460#0 141693460#1 5090442#0 5090442#1 5090442#2 5090442#3 5090442#4 5090442#5 5090442#6 4674874#0 4674874#1 4674874#2 4674874#3 4674874#4 4674874#5 4674874#6 4674874#7 4674874#8 -4674874#8"/>
    </vehicle>
    <vehicle id="29" depart="29.00">
        <route edges="-458513995#0 -34121614#1 -34121614#0 -34121613#1 -34121613#0 -34121627#1 -34121627#0 -34121683#1 -34121683#0 -61429676#1 -61429676#0 446810241#0 446810241#1 446810241#2 690950215#0 690950215#1 690950215#2 690950215#3 4674904#0 4674904#1 4674904#2 4674904#3 4674904#4 4674904#5 553562814#0 553562814#1 553562814#2 553562814#3 553562814#4 553562814#5 553562814#6 -34614465#3 -34614465#2 -34614465#1 34614465#1"/>
    </vehicle>
    <vehicle id="30" depart="30.00">
        <route edges="34587651#0 34587651#1 34587651#2 34587651#3 -34587650#1 -34587650#0 -553562814#6 -553562814#5 -553562814#4 -553562814#3 -553562814#2 -553562814#1"/>
    </vehicle>
    <vehicle id="31" depart="31.00">
        <route edges="4674946#0 4674946#1 458454045 446810240#0 446810240#1 446810240#2 446810241#0 446810241#1 446810241#2 690950215#0 690950215#1 690950215#2 690950215#3 553562816#0 553562816#1"/>
    </vehicle>
    <vehicle id="32" depart="32.00">
        <route edges="36355963#2 -36355963#2 -36355963#1 -36355963#0 314651045#4 314651045#5"/>
    </vehicle>
    <vehicle id="33" depart="33.00">
        <route edges="-5084883#1"/>
    </vehicle>
    <vehicle id="34" depart="34.00">
        <route edges="34614465#1 34614465#2 34614465#3 34587650#0 34587650#1 -141693460#4 -141693460#3 -141693460#2 5090442#0 5090442#1 5090442#2 5090442#3 5090442#4 5090442#5 5090442#6 4674874#0 4674874#1 4674874#2 4674874#3 4674874#4 4674874#5 4674874#6 4674874#7 4674874#8 4674874#9 4674874#10 4674874#11 292021138#3 292021138#4 292021138#5 292021138#6 314651045#0 314651045#1 314651045#2 314651045#3 314651045#4"/>
    </vehicle>
    <vehicle id="35" depart="35.00">
        <route edges="-5084883#1 -5084883#0 -34121685#5 -34121685#4 -34121685#3 -34121685#2 -34121685#1 -34121685#0 -34121684#3 -34121684#2 -34121684#1 -34121684#0 -5090442#12 -5090442#11 -5090442#10 -5090442#9 -5090442#8 -5090442#7 5090442#7"/>
    </vehicle>
    <vehicle id="36" depart="36.00">
        <route edges="-34121683#0 34121683#0 34121683#1 34121685#0 -34121685#0 -34121684#3 -34121684#2 -34121684#1 -34121684#0 -5090442#12 -5090442#11 -5090442#10 -5090442#9 -5090442#8 -5090442#7 5090442#7"/>
    </vehicle>
    <vehicle id="37" depart="37.00">
        <route edges="458494919#0 458494919#1 458494919#2 553562816#3 553562816#4 553562816#5 -5090442#9 -5090442#8 -5090442#7 4674874#0 4674874#1 4674874#2 4674874#3 4674874#4 4674874#5 4674874#6 4674874#7 4674874#8 -4674874#8"/>
    </vehicle>
    <vehicle id="38" depart="38.00">
        <route edges="458454045 -458454045 -500300650#5 500300650#5"/>
    </vehicle>
    <vehicle id="40" depart="40.00">
        <route edges="5084883#1 -5084883#1 -5084883#0 61511324#0 61511324#1"/>
    </vehicle>
    <vehicle id="41" depart="41.00">
        <route edges="241014751#1 241014751#2 241014751#3 -34121685#5 -34121685#4 -34121685#3 -34121685#2 -34121685#1 -34121685#0 34121627#0 34121627#1"/>
    </vehicle>
    <vehicle id="42" depart="42.00">
        <route edges="458494919#0 -458494919#0"/>
    </vehicle>
    <vehicle id="43" depart="43.00">
        <route edges="745505114#2 745505114#3 553562814#0 553562814#1 553562814#2 553562814#3 553562814#4 553562814#5 553562814#6 34587650#0 34587650#1 -141693460#4 -141693460#3 141693460#3"/>
    </vehicle>
    <vehicle id="44" depart="44.00">
        <route edges="34121683#0 34121683#1 34121627#0 34121627#1"/>
    </vehicle>
    <vehicle id="45" depart="45.00">
        <route edges="496548134#0 496548134#1 61429673#0 61429673#1 241014751#0 241014751#1 241014751#2 241014751#3 -34121685#5 -34121685#4 -34121685#3 -34121685#2 -34121685#1 -34121685#0 34121627#0 34121627#1 34121613#0 34121613#1 34121614#0 34121614#1 458513995#0 458513995#1 458513996#0 -458513996#0 -542553252#2 -542553252#1 -542553252#0"/>
    </vehicle>
    <vehicle id="46" depart="46.00">
        <route edges="-34614465#1 34614465#1 34614465#2 34614465#3 34587650#0 34587650#1 -141693460#4 -141693460#3 -141693460#2 5090442#0 5090442#1 5090442#2 5090442#3 5090442#4 5090442#5 5090442#6 4674874#0 4674874#1 4674874#2 4674874#3 4674874#4 4674874#5 4674874#6 4674874#7 4674874#8 4674874#9 4674874#10 4674874#11 292021138#3 292021138#4 292021138#5 292021138#6 314651045#0 314651045#1 314651045#2 314651045#3 36355963#0 36355963#1 36355963#2 542553252#0 542553252#1 542553252#2 458513996#0 458513996#1 458513996#2 458513996#3 219905382#0 219905382#1 496548132 6694701#0 6694701#1"/>
    </vehicle>
    <vehicle id="47" depart="47.00">
        <route edges="61429670#2 -61429670#2 -61429670#1 -61429670#0 -4674907#2 -4674907#1 -4674907#0 30775361#2 30775361#3 30775361#4 30775361#5 553562816#0 553562816#1 553562816#2 553562816#3 553562816#4 553562816#5 5090442#10 5090442#11 5090442#12"/>
    </vehicle>
    <vehicle id="48" depart="48.00">
        <route edges="34386967#1 61429675#0 61429675#1 61429675#2 -446810240#2 446810240#2 61429676#0 61429676#1 34121683#0 34121683#1 34121627#0 34121627#1 34121613#0 34121613#1 34121617#0 34121617#1 34121617#2"/>
    </vehicle>
    <vehicle id="49" depart="49.00">
        <route edges="133658685#9 133658685#10 34121684#0 34121684#1 34121684#2 34121684#3 34121685#0 34121685#1 34121685#2 34121685#3 34121685#4 34121685#5 -241014751#3 -241014751#2"/>
    </vehicle>
    <vehicle id="51" depart="51.00">
        <route edges="-5090442#7 5090442#7 5090442#8 5090442#9 5090442#10 5090442#11 5090442#12 34121684#0 34121684#1 34121684#2 34121684#3 -34121683#1 -34121683#0 -61429676#1"/>
    </vehicle>
    <vehicle id="52" depart="52.00">
        <route edges="-61429675#1 -61429675#0 -61429670#5 -61429670#4 -61429670#3 -61429670#2 -61429670#1 -61429670#0 61429670#0"/>
    </vehicle>
    <vehicle id="53" depart="53.00">
        <route edges="21674178#1 21674178#2 314651045#4 314651045#5"/>
    </vehicle>
    <vehicle id="54" depart="54.00">
        <route edges="-500300650#1 500300650#1 500300650#2 500300650#3 500300650#4 500300650#5 458454045 446810240#0 446810240#1 446810240#2 446810241#0 446810241#1 446810241#2 690950215#0 690950215#1 690950215#2 690950215#3 4674904#0 4674904#1 4674904#2 4674904#3 4674904#4 4674904#5 553562814#0 553562814#1 553562814#2 553562814#3 553562814#4 553562814#5 553562814#6 -34614465#3 -34614465#2 -34614465#1 34614465#1"/>
    </vehicle>
    <!--<vehicle id="55" depart="55.00">
        <route edges="-34121685#3 34121685#3 34121685#4 34121685#5 -241014751#3 -241014751#2"/>
    </vehicle>
    <vehicle id="56" depart="56.00">
        <route edges="-4674874#8 4674874#8 4674874#9 4674874#10 4674874#11 292021138#3 292021138#4 292021138#5 292021138#6 314651045#0 314651045#1 314651045#2 314651045#3 36355963#0 36355963#1 36355963#2 542553252#0 542553252#1 542553252#2 34121615#0 34121615#1"/>
    </vehicle>
    <vehicle id="57" depart="57.00">
        <route edges="141693460#0 141693460#1 141693460#2 141693460#3 141693460#4 -34587650#1 -34587650#0 -34614465#3 -34614465#2 -34614465#1"/>
    </vehicle>
    <vehicle id="58" depart="58.00">
        <route edges="-33243155#10 -33243155#9 -4674874#6 -4674874#5 -4674874#4 -4674874#3 -4674874#2 -4674874#1 -4674874#0 -5090442#6 5090442#6"/>
    </vehicle>
    <vehicle id="59" depart="59.00">
        <route edges="-34121685#4 -34121685#3 -34121685#2 -34121685#1 -34121685#0 -34121684#3 -34121684#2 -34121684#1 -34121684#0 -5090442#12 -5090442#11 -5090442#10 -5090442#9 -5090442#8 -5090442#7 4674874#0 4674874#1 4674874#2 4674874#3 4674874#4 4674874#5 4674874#6 4674874#7 4674874#8 -4674874#8"/>
    </vehicle>
    <vehicle id="60" depart="60.00">
        <route edges="690950215#1 -690950215#1 -690950215#0 -446810241#2 -446810241#1 -446810241#0 61429676#0 61429676#1 34121683#0 34121683#1 34121627#0 34121627#1 34121613#0 34121613#1 34121614#0 34121614#1 458513995#0 458513995#1 458513996#0 -458513996#0 34121615#0 34121615#1 -34121615#1"/>
    </vehicle>
    <vehicle id="61" depart="61.00">
        <route edges="-141693460#3"/>
    </vehicle>
    <vehicle id="62" depart="62.00">
        <route edges="34121683#1 -34121683#1 -34121683#0 -61429676#1 -61429676#0 446810241#0 446810241#1 446810241#2 690950215#0 690950215#1 690950215#2 690950215#3 4674904#0 4674904#1 4674904#2 4674904#3 4674904#4 -4674904#4"/>
    </vehicle>
    <vehicle id="63" depart="63.00">
        <route edges="61429670#0 -61429670#0 -4674907#2 -4674907#1 -4674907#0 30775361#2 30775361#3 30775361#4 30775361#5 -690950215#3 -690950215#2 -690950215#1 -690950215#0 -446810241#2 -446810241#1 -446810241#0 61429676#0 61429676#1 34121683#0 34121683#1 34121627#0 34121627#1 34121613#0 34121613#1 34121614#0 34121614#1 458513995#0 458513995#1 458513996#0 -458513996#0 -542553252#2 -542553252#1 -542553252#0"/>
    </vehicle>
    <vehicle id="64" depart="64.00">
        <route edges="-34121615#1 -34121615#0"/>
    </vehicle>
    <vehicle id="66" depart="66.00">
        <route edges="-61429676#1 61429676#1 34121683#0 34121683#1 34121627#0 34121627#1"/>
    </vehicle>
    <vehicle id="67" depart="67.00">
        <route edges="-458513995#0 -34121614#1 -34121614#0 -34121613#1 -34121613#0 -34121627#1 -34121627#0 -34121683#1 -34121683#0 -61429676#1 -61429676#0 446810241#0 446810241#1 446810241#2 690950215#0 690950215#1 -690950215#1"/>
    </vehicle>
    <vehicle id="68" depart="68.00">
        <route edges="-34121627#1 -34121627#0 -34121684#3 34121684#3 34121685#0 34121685#1 34121685#2 34121685#3 34121685#4 34121685#5 61511324#0 61511324#1"/>
    </vehicle>
    <vehicle id="69" depart="69.00">
        <route edges="553564802#1 553564802#2 553564802#3 -33243155#12 -33243155#11 -33243155#10 -33243155#9 -4674874#6 -4674874#5 -4674874#4 -4674874#3 -4674874#2 -4674874#1 -4674874#0 5090442#7 5090442#8 5090442#9 5090442#10 5090442#11 5090442#12 34121684#0 34121684#1 34121684#2 34121684#3 -34121683#1 -34121683#0 -61429676#1 -61429676#0 446810241#0 -446810241#0 -61429675#2 61429675#2"/>
    </vehicle>
    <vehicle id="72" depart="72.00">
        <route edges="30775361#5 -690950215#3 -690950215#2 -690950215#1 -690950215#0 -446810241#2 -446810241#1 -446810241#0 61429676#0 61429676#1 34121683#0 34121683#1 34121627#0 34121627#1 34121613#0 -34121613#0"/>
    </vehicle>
    <vehicle id="74" depart="74.00">
        <route edges="61429675#2 -446810240#2 446810240#2 61429676#0 61429676#1 34121683#0 34121683#1 34121685#0 34121685#1 34121685#2 34121685#3 7969165#0 7969165#1 7969165#2 4674946#0"/>
    </vehicle>
    <vehicle id="75" depart="75.00">
        <route edges="-36355963#1 36355963#1 36355963#2 133658685#0 133658685#1 133658685#2 133658685#3 133658685#4 133658685#5 133658685#6 133658685#7 33243155#0 33243155#1 33243155#2 33243155#3 33243155#4 33243155#5 33243155#6 33243155#7 33243155#8 33243155#9 33243155#10 33243155#11 33243155#12 33243155#13 33243155#14"/>
    </vehicle>
    <vehicle id="76" depart="76.00">
        <route edges="-141693460#3 -141693460#2 5090442#0 5090442#1 5090442#2 5090442#3 5090442#4 5090442#5 5090442#6 4674874#0 4674874#1 4674874#2 4674874#3 4674874#4 4674874#5 4674874#6 -33243155#8 -33243155#7 -33243155#6"/>
    </vehicle>
    <vehicle id="77" depart="77.00">
        <route edges="-61429673#1 61429673#1 241014751#0 241014751#1 241014751#2 241014751#3 -34121685#5 -34121685#4 7969165#0 7969165#1 7969165#2 4674946#0 4674946#1 458454045 446810240#0 446810240#1 446810240#2 -61429675#2 -61429675#1 -61429675#0 -34386967#1 34386967#1"/>
    </vehicle>
    <vehicle id="78" depart="78.00">
        <route edges="-446810240#0 446810240#0 446810240#1 446810240#2 446810241#0 446810241#1 446810241#2 690950215#0 690950215#1 690950215#2 690950215#3 553562816#0 553562816#1 553562816#2 553562816#3"/>
    </vehicle>
    <vehicle id="79" depart="79.00">
        <route edges="693359748#0 693359748#1 61429673#0 61429673#1 241014751#0 241014751#1 241014751#2 241014751#3 -34121685#5 -34121685#4 -34121685#3 -34121685#2 -34121685#1 -34121685#0 -34121684#3 -34121684#2 -34121684#1 -34121684#0 -5090442#12 -5090442#11 -5090442#10 -5090442#9 -5090442#8 -5090442#7 -5090442#6 -5090442#5 -5090442#4 -5090442#3 -5090442#2 -5090442#1 -5090442#0 141693460#2 141693460#3"/>
    </vehicle>
    <vehicle id="80" depart="80.00">
        <route edges="-34121683#0 -61429676#1 -61429676#0 446810241#0 446810241#1 446810241#2 690950215#0 690950215#1 690950215#2 690950215#3 4674904#0 4674904#1 4674904#2 4674904#3 4674904#4 4674904#5 553562814#0 553562814#1 553562814#2 553562814#3 553562814#4 553562814#5 553562814#6 -34614465#3 -34614465#2 -34614465#1 34614465#1"/>
    </vehicle>
    <vehicle id="81" depart="81.00">
        <route edges="-690950215#1 -690950215#0"/>
    </vehicle>
    <vehicle id="82" depart="82.00">
        <route edges="500300650#1 500300650#2 500300650#3 500300650#4 500300650#5 458454045 446810240#0 446810240#1 446810240#2 61429676#0 61429676#1 34121683#0 34121683#1 34121685#0 34121685#1 34121685#2 34121685#3 34121685#4 34121685#5 61511324#0 61511324#1"/>
    </vehicle>
    <vehicle id="83" depart="83.00">
        <route edges="553562816#13 553562816#14 553564807#0 553564807#1 553564807#2 133658685#4 133658685#5 133658685#6 133658685#7 133658685#8 133658685#9 133658685#10 34121684#0 34121684#1 34121684#2 34121684#3 34121685#0 34121685#1 34121685#2 34121685#3 34121685#4 34121685#5 5084883#0 5084883#1"/>
    </vehicle>
    <vehicle id="84" depart="84.00">
        <route edges="745505114#2 745505114#3 -4674904#5 -4674904#4 -4674904#3 -4674904#2 -4674904#1 -4674904#0 553562816#0 553562816#1 553562816#2 553562816#3 553562816#4 553562816#5 5090442#10 5090442#11 5090442#12"/>
    </vehicle>
    <vehicle id="85" depart="85.00">
        <route edges="-34614465#1 34614465#1 34614465#2 34614465#3 34587650#0 34587650#1 -141693460#4 -141693460#3 -141693460#2 5090442#0 5090442#1 5090442#2 5090442#3 5090442#4 5090442#5 5090442#6 4674874#0 4674874#1 4674874#2 4674874#3 4674874#4 4674874#5 4674874#6 4674874#7 4674874#8 4674874#9 4674874#10 4674874#11 292021138#3 292021138#4 292021138#5 292021138#6 314651045#0 314651045#1 314651045#2 314651045#3 36355963#0 36355963#1 36355963#2 542553252#0 542553252#1 542553252#2 458513996#0 458513996#1 458513996#2 458513996#3 251326820#0 251326820#1"/>
    </vehicle>
    <vehicle id="86" depart="86.00">
        <route edges="553564807#2 133658685#4 133658685#5 133658685#6 133658685#7 133658685#8 133658685#9 133658685#10 34121684#0 34121684#1 34121684#2 34121684#3 34121685#0 34121685#1 34121685#2 34121685#3 7969165#0 7969165#1 7969165#2 4674946#0"/>
    </vehicle>
    <vehicle id="87" depart="87.00">
        <route edges="-690950215#0 -446810241#2 -446810241#1 -446810241#0 61429676#0 61429676#1 34121683#0 34121683#1 34121685#0 -34121685#0 -34121684#3 -34121684#2 -34121684#1 -34121684#0 -5090442#12 -5090442#11 -5090442#10 -5090442#9 -5090442#8 -5090442#7 4674874#0 4674874#1 4674874#2 4674874#3 4674874#4 4674874#5 4674874#6 33243155#9 33243155#10 33243155#11 33243155#12 553564802#4 553564802#5"/>
    </vehicle>
    <vehicle id="88" depart="88.00">
        <route edges="-4674904#2 -4674904#1 -4674904#0 -690950215#3 -690950215#2 -690950215#1 -690950215#0 -446810241#2 -446810241#1 -446810241#0 61429676#0 61429676#1 34121683#0 34121683#1 34121627#0 34121627#1 34121613#0 34121613#1 34121614#0 34121614#1 458513995#0 458513995#1 458513996#0 458513996#1 458513996#2 458513996#3 219905382#0 219905382#1"/>
    </vehicle>
    <vehicle id="89" depart="89.00">
        <route edges="553564807#2 133658685#4 133658685#5 133658685#6 133658685#7 33243155#0 33243155#1 33243155#2 33243155#3 33243155#4 33243155#5 33243155#6 33243155#7 33243155#8 -4674874#6 -4674874#5 -4674874#4 -4674874#3 -4674874#2 -4674874#1 -4674874#0 -5090442#6 -5090442#5 -5090442#4 -5090442#3 -5090442#2 -5090442#1 -5090442#0 141693460#2 141693460#3 -141693460#3"/>
    </vehicle>
    <vehicle id="90" depart="90.00">
        <route edges="61511324#1 61511324#2 61511324#3 500300650#3 500300650#4 500300650#5 458454045 446810240#0 446810240#1 446810240#2 61429676#0 61429676#1 -61429676#1"/>
    </vehicle>
    <vehicle id="91" depart="91.00">
        <route edges="500300650#1 500300650#2 500300650#3 500300650#4 500300650#5 458454045 446810240#0 446810240#1 446810240#2 61429676#0 61429676#1 34121683#0 34121683#1 34121627#0 34121627#1"/>
    </vehicle>
    <vehicle id="92" depart="92.00">
        <route edges="-141693460#3 -141693460#2 5090442#0 5090442#1 5090442#2 5090442#3 5090442#4 5090442#5 5090442#6 5090442#7 5090442#8 5090442#9 553562816#6 553562816#7 553562816#8"/>
    </vehicle>
    <vehicle id="93" depart="93.00">
        <route edges="553562816#8 553562816#9 -33243155#3 -33243155#2 -33243155#1 -33243155#0 133658685#8 133658685#9 133658685#10 34121684#0 34121684#1 34121684#2 34121684#3 -34121683#1 -34121683#0 -61429676#1 -61429676#0 446810241#0 -446810241#0 -61429675#2 -61429675#1 -61429675#0 -61429670#5 -61429670#4 -61429670#3 -61429670#2 -61429670#1 -61429670#0"/>
    </vehicle>
    <vehicle id="94" depart="94.00">
        <route edges="30775361#1"/>
    </vehicle>
    <vehicle id="95" depart="95.00">
        <route edges="-6694701#1 -6694701#0 496548134#0 496548134#1 61429673#0 61429673#1 241014751#0 241014751#1 241014751#2 241014751#3 -34121685#5 -34121685#4 -34121685#3 -34121685#2 -34121685#1 -34121685#0 -34121684#3 -34121684#2 -34121684#1 -34121684#0 -5090442#12 5090442#12"/>
    </vehicle>
    <vehicle id="97" depart="97.00">
        <route edges="34386967#1 61429675#0 61429675#1 61429675#2 -446810240#2 446810240#2 61429676#0 61429676#1 34121683#0 34121683#1 34121627#0 34121627#1 34121613#0 34121613#1 34121614#0 34121614#1 458513995#0 458513995#1 458513996#0 -458513996#0 34121615#0 34121615#1 -34121615#1"/>
    </vehicle>
    <vehicle id="98" depart="98.00">
        <route edges="553564802#2 553564802#3 -33243155#12 -33243155#11 -33243155#10 -33243155#9 -4674874#6 -4674874#5 -4674874#4 -4674874#3 -4674874#2 -4674874#1 -4674874#0 5090442#7 5090442#8 5090442#9 5090442#10 5090442#11 5090442#12 34121684#0 34121684#1 34121684#2 34121684#3 34121685#0 34121685#1 34121685#2 34121685#3 34121685#4 34121685#5 61511324#0 61511324#1 4674895#0 4674895#1"/>
    </vehicle>
    <vehicle id="99" depart="99.00">
        <route edges="241014751#2 241014751#3 -34121685#5 -34121685#4 -34121685#3 -34121685#2 -34121685#1 -34121685#0 -34121683#1 -34121683#0 4674953#0 4674953#1 4674953#2 458494919#0 458494919#1 458494919#2 553562816#3 553562816#4"/>
    </vehicle>-->
</routes>
