<?xml version="1.0" encoding="UTF-8"?>

<!-- generated on 12/24/19 11:36:28 by SUMO polyconvert Version 0.32.0
<?xml version="1.0" encoding="UTF-8"?>

<configuration xmlns:xsi="http://www.w3.org/2001/XMLSchema-instance" xsi:noNamespaceSchemaLocation="http://sumo.dlr.de/xsd/polyconvertConfiguration.xsd">

    <input>
        <net-file value="map.net.xml"/>
        <osm-files value="map.osm"/>
        <type-file value="typemap.xml"/>
    </input>

    <output>
        <output-file value="map.poly.xml"/>
    </output>

    <processing>
        <poi-layer-offset value="5"/>
    </processing>

</configuration>
-->

<additional xmlns:xsi="http://www.w3.org/2001/XMLSchema-instance" xsi:noNamespaceSchemaLocation="http://sumo.dlr.de/xsd/additional_file.xsd">
    <location netOffset="-628571.98,-4833233.79" convBoundary="0.00,0.00,2328.20,3581.45" origBoundary="-79.405167,43.640667,-79.376904,43.672957" projParameter="+proj=utm +zone=17 +ellps=WGS84 +datum=WGS84 +units=m +no_defs"/>

    <poly id="102596800" type="building" color="255,230,230" fill="1" layer="-1.00" shape="957.62,754.12 964.90,731.27 966.19,731.94 969.40,722.85 970.15,723.07 973.28,712.57 950.91,705.23 944.01,726.34 947.45,727.59 940.46,747.51 956.49,752.56 956.03,753.74 957.62,754.12"/>
    <poly id="114206166" type="building" color="255,230,230" fill="1" layer="-1.00" shape="1545.75,740.24 1544.34,744.46 1543.77,744.27 1527.63,792.76 1500.54,783.80 1518.09,731.09 1545.75,740.24"/>
    <poly id="114206168" type="building" color="255,230,230" fill="1" layer="-1.00" shape="1531.56,794.31 1557.91,803.14 1561.23,793.27 1559.89,792.82 1570.32,761.90 1570.89,762.09 1574.34,751.84 1553.36,744.81 1549.44,756.42 1551.08,756.97 1541.30,785.95 1537.33,784.62 1536.11,788.24 1533.87,787.48 1531.56,794.31"/>
    <poly id="114206170" type="building" color="255,230,230" fill="1" layer="-1.00" shape="1503.45,767.08 1493.57,763.89 1506.40,724.51 1516.29,727.71 1503.45,767.08"/>
    <poly id="114206833" type="parking" color="184,184,179" fill="1" layer="-1.00" shape="1565.62,616.14 1555.06,612.99 1564.53,585.71 1574.45,589.26 1565.62,616.14"/>
    <poly id="122205413" type="building" color="255,230,230" fill="1" layer="-1.00" shape="934.61,921.48 941.81,923.76 946.68,908.39 939.47,906.11 934.61,921.48"/>
    <poly id="122205417" type="building" color="255,230,230" fill="1" layer="-1.00" shape="967.16,931.70 980.75,889.99 955.41,881.79 946.68,908.39 941.81,923.76 967.16,931.70"/>
    <poly id="122205423" type="building" color="255,230,230" fill="1" layer="-1.00" shape="968.05,881.49 927.93,868.91 939.30,834.52 940.73,834.96 942.06,830.77 959.35,836.18 952.76,857.08 973.68,863.63 968.05,881.49"/>
    <poly id="122205726" type="building" color="255,230,230" fill="1" layer="-1.00" shape="901.42,610.16 950.41,625.32 956.87,604.57 907.88,589.41 901.42,610.16"/>
    <poly id="126301448" type="building" color="255,230,230" fill="1" layer="-1.00" shape="1060.50,913.18 1058.63,918.81 1047.51,915.15 1046.79,917.30 1043.26,916.13 1043.05,916.80 1031.59,913.02 1040.91,884.98 1064.35,892.71 1061.94,899.97 1064.60,900.85 1060.50,913.18"/>
    <poly id="126301449" type="building" color="255,230,230" fill="1" layer="-1.00" shape="1018.91,896.80 999.79,890.90 996.35,901.98 1011.36,906.60 1011.81,905.16 1014.33,905.94 1015.37,902.60 1016.95,903.09 1018.91,896.80"/>
    <poly id="126301454" type="building" color="255,230,230" fill="1" layer="-1.00" shape="1139.05,937.79 1129.28,934.89 1134.85,916.22 1144.62,919.12 1139.05,937.79"/>
    <poly id="126301455" type="building" color="255,230,230" fill="1" layer="-1.00" shape="1087.54,936.23 1095.07,938.90 1085.05,969.77 1078.34,967.48 1087.54,936.23"/>
    <poly id="126301456" type="building" color="255,230,230" fill="1" layer="-1.00" shape="1093.72,972.89 1103.89,941.39 1095.07,938.90 1085.05,969.77 1093.72,972.89"/>
    <poly id="126301457" type="landuse" color="194,194,130" fill="1" layer="-3.00" shape="1000.07,942.48 1005.49,924.43 998.16,922.25 992.66,940.23 1000.07,942.48"/>
    <poly id="126301459" type="building" color="255,230,230" fill="1" layer="-1.00" shape="1047.00,957.50 1016.23,947.79 1022.62,927.58 1053.47,937.47 1047.00,957.50"/>
    <poly id="126301460" type="building" color="255,230,230" fill="1" layer="-1.00" shape="1124.65,982.83 1131.10,984.85 1136.94,966.22 1130.20,964.37 1124.65,982.83"/>
    <poly id="126301461" type="building" color="255,230,230" fill="1" layer="-1.00" shape="1009.85,945.68 1002.70,943.40 1011.84,914.95 1019.00,917.23 1009.85,945.68"/>
    <poly id="126301462" type="building" color="255,230,230" fill="1" layer="-1.00" shape="1131.10,984.85 1156.30,992.70 1161.71,975.44 1145.71,970.46 1146.14,969.08 1136.94,966.22 1131.10,984.85"/>
    <poly id="126301463" type="building" color="255,230,230" fill="1" layer="-1.00" shape="1115.91,980.01 1125.76,948.85 1125.74,947.40 1134.26,949.83 1130.20,964.37 1124.65,982.83 1115.91,980.01"/>
    <poly id="126301464" type="building" color="255,230,230" fill="1" layer="-1.00" shape="1177.97,978.78 1182.67,964.18 1153.43,954.84 1148.74,969.44 1162.69,973.90 1177.97,978.78"/>
    <poly id="126301465" type="building" color="255,230,230" fill="1" layer="-1.00" shape="992.66,940.23 985.31,938.00 991.58,917.47 998.94,919.71 998.16,922.25 992.66,940.23"/>
    <poly id="126301466" type="building" color="255,230,230" fill="1" layer="-1.00" shape="1016.23,947.79 1009.85,945.68 1019.00,917.23 1019.93,914.07 1026.27,916.06 1022.62,927.58 1016.23,947.79"/>
    <poly id="126301467" type="building" color="255,230,230" fill="1" layer="-1.00" shape="1030.05,881.59 1035.99,883.45 1027.11,911.60 1018.94,909.03 1022.43,897.96 1024.67,898.66 1030.05,881.59"/>
    <poly id="126301468" type="building" color="255,230,230" fill="1" layer="-1.00" shape="1122.50,937.01 1125.69,926.32 1129.21,914.54 1134.85,916.22 1129.28,934.89 1128.14,938.69 1122.50,937.01"/>
    <poly id="126301471" type="building" color="255,230,230" fill="1" layer="-1.00" shape="1062.33,962.66 1047.00,957.50 1053.47,937.47 1057.77,924.74 1071.76,929.34 1065.42,948.49 1066.87,948.97 1062.33,962.66"/>
    <poly id="126301472" type="building" color="255,230,230" fill="1" layer="-1.00" shape="1062.33,962.66 1066.87,948.97 1068.17,949.30 1073.74,930.38 1080.28,932.29 1079.79,933.97 1087.54,936.23 1078.34,967.48 1062.33,962.66"/>
    <poly id="141694015" type="amenity" color="237,199,199" fill="1" layer="-1.00" shape="1541.66,610.32 1613.06,633.76 1602.22,666.42 1589.29,703.16 1584.04,701.47 1524.03,682.23 1518.40,680.38 1541.66,610.32"/>
    <poly id="141694015#1" type="building" color="255,230,230" fill="1" layer="-1.00" shape="1541.66,610.32 1613.06,633.76 1602.22,666.42 1589.29,703.16 1584.04,701.47 1524.03,682.23 1518.40,680.38 1541.66,610.32"/>
    <poly id="150370474" type="building" color="255,230,230" fill="1" layer="-1.00" shape="1506.20,904.36 1522.28,909.58 1529.60,887.18 1513.52,881.97 1506.20,904.36"/>
    <poly id="150370475" type="building" color="255,230,230" fill="1" layer="-1.00" shape="1483.39,905.75 1516.84,916.78 1510.24,936.68 1476.79,925.65 1483.39,905.75"/>
    <poly id="150431484" type="amenity" color="237,199,199" fill="1" layer="-1.00" shape="1195.08,627.22 1181.78,668.86 1250.31,690.61 1250.83,689.00 1253.56,689.87 1265.00,693.49 1266.03,690.28 1269.14,691.27 1280.90,654.45 1195.08,627.22"/>
    <poly id="150431484#1" type="building" color="255,230,230" fill="1" layer="-1.00" shape="1195.08,627.22 1181.78,668.86 1250.31,690.61 1250.83,689.00 1253.56,689.87 1265.00,693.49 1266.03,690.28 1269.14,691.27 1280.90,654.45 1195.08,627.22"/>
    <poly id="161832299" type="building" color="255,230,230" fill="1" layer="-1.00" shape="1286.98,788.38 1295.97,760.79 1333.88,773.05 1334.82,770.18 1336.83,770.83 1335.92,773.64 1338.87,774.58 1339.61,772.28 1356.42,777.71 1357.47,774.50 1296.25,754.80 1303.13,733.68 1391.56,762.17 1384.61,783.54 1383.59,783.21 1383.98,782.00 1366.45,776.33 1365.44,779.43 1379.23,783.90 1379.50,783.06 1384.70,784.75 1379.71,800.08 1377.22,799.27 1376.72,800.83 1378.90,801.54 1374.02,816.53 1286.98,788.38"/>
    <poly id="162581106" type="landuse" color="194,194,130" fill="1" layer="-3.00" shape="1389.22,821.54 1394.41,805.59 1394.93,805.76 1395.98,802.47 1396.96,802.78 1398.76,797.21 1414.56,802.29 1412.52,808.60 1415.95,809.70 1416.84,806.94 1420.38,808.08 1419.49,810.85 1442.50,818.23 1443.93,813.81 1448.21,812.01 1457.17,814.85 1448.65,840.41 1430.11,834.80 1430.51,833.82 1395.05,822.39 1394.68,823.44 1389.22,821.54"/>
    <poly id="162581107" type="building" color="255,230,230" fill="1" layer="-1.00" shape="1473.08,816.78 1481.72,790.04 1466.63,785.19 1457.99,811.93 1473.08,816.78"/>
    <poly id="162581108" type="building" color="255,230,230" fill="1" layer="-1.00" shape="1399.12,792.81 1407.72,767.17 1451.60,781.78 1446.02,798.41 1451.61,800.27 1448.92,808.27 1442.74,806.21 1442.40,807.24 1399.12,792.81"/>
    <poly id="162607309" type="building" color="255,230,230" fill="1" layer="-1.00" shape="1690.43,732.53 1705.31,700.17 1680.68,692.45 1680.06,695.96 1666.70,691.96 1656.80,722.10 1690.43,732.53"/>
    <poly id="169777693" type="building" color="255,230,230" fill="1" layer="-1.00" shape="1531.74,643.96 1530.23,649.03 1529.50,654.27 1529.56,659.57 1530.41,664.80 1532.03,669.84 1534.38,674.59 1537.42,678.92 1541.08,682.77 1545.27,686.03 1549.90,688.62 1554.86,690.51 1560.05,691.63 1565.36,691.97 1570.65,691.51 1575.82,690.28 1580.74,688.30 1585.32,685.60 1589.43,682.26 1593.00,678.34 1595.95,673.93 1598.21,669.14 1599.72,664.06 1600.45,658.82 1600.39,653.53 1599.54,648.30 1597.92,643.26 1595.57,638.51 1592.53,634.16 1588.87,630.33 1584.68,627.07 1580.05,624.47 1575.09,622.59 1569.90,621.47 1564.60,621.12 1559.30,621.57 1554.13,622.81 1549.21,624.80 1544.63,627.49 1540.52,630.84 1536.95,634.76 1534.00,639.16 1531.74,643.96"/>
    <poly id="170490460" type="building" color="255,230,230" fill="1" layer="-1.00" shape="1186.34,603.03 1193.52,605.38 1202.90,576.12 1195.73,573.77 1186.34,603.03"/>
    <poly id="170490461" type="building" color="255,230,230" fill="1" layer="-1.00" shape="1178.55,600.55 1186.34,603.03 1195.73,573.77 1187.94,571.29 1178.55,600.55"/>
    <poly id="170490462" type="building" color="255,230,230" fill="1" layer="-1.00" shape="1271.12,630.02 1278.95,632.52 1287.41,603.18 1280.17,600.90 1271.12,630.02"/>
    <poly id="170490463" type="building" color="255,230,230" fill="1" layer="-1.00" shape="1193.52,605.38 1200.88,607.81 1209.96,578.41 1202.90,576.12 1193.52,605.38"/>
    <poly id="170490464" type="building" color="255,230,230" fill="1" layer="-1.00" shape="1247.38,622.68 1255.35,625.04 1264.16,596.23 1256.45,593.66 1247.38,622.68"/>
    <poly id="170490465" type="building" color="255,230,230" fill="1" layer="-1.00" shape="1255.35,625.04 1262.90,627.44 1271.77,598.51 1264.16,596.23 1255.35,625.04"/>
    <poly id="170490466" type="building" color="255,230,230" fill="1" layer="-1.00" shape="1239.37,620.20 1247.38,622.68 1256.45,593.66 1248.43,591.17 1239.37,620.20"/>
    <poly id="170490467" type="building" color="255,230,230" fill="1" layer="-1.00" shape="1216.53,612.90 1224.51,615.39 1233.28,585.92 1225.18,583.49 1216.53,612.90"/>
    <poly id="170490468" type="building" color="255,230,230" fill="1" layer="-1.00" shape="1200.88,607.81 1208.79,610.35 1217.32,580.95 1209.96,578.41 1200.88,607.81"/>
    <poly id="170490469" type="building" color="255,230,230" fill="1" layer="-1.00" shape="1278.95,632.52 1287.67,635.33 1296.69,605.87 1287.41,603.18 1278.95,632.52"/>
    <poly id="170490470" type="building" color="255,230,230" fill="1" layer="-1.00" shape="1208.79,610.35 1216.53,612.90 1225.18,583.49 1217.32,580.95 1208.79,610.35"/>
    <poly id="170490471" type="building" color="255,230,230" fill="1" layer="-1.00" shape="1170.76,598.07 1178.55,600.55 1187.94,571.29 1180.14,568.81 1170.76,598.07"/>
    <poly id="170490472" type="building" color="255,230,230" fill="1" layer="-1.00" shape="1262.90,627.44 1271.12,630.02 1280.17,600.90 1271.77,598.51 1262.90,627.44"/>
    <poly id="170490473" type="building" color="255,230,230" fill="1" layer="-1.00" shape="1231.94,617.61 1239.37,620.20 1248.43,591.17 1242.25,588.92 1237.76,603.19 1236.40,602.85 1231.94,617.61"/>
    <poly id="170490474" type="building" color="255,230,230" fill="1" layer="-1.00" shape="1224.51,615.39 1231.94,617.61 1236.40,602.85 1237.76,603.19 1242.25,588.92 1233.28,585.92 1224.51,615.39"/>
    <poly id="179076434" type="building" color="255,230,230" fill="1" layer="-1.00" shape="1247.54,928.57 1256.22,900.66 1228.47,892.09 1219.79,920.01 1247.54,928.57"/>
    <poly id="179076530" type="building" color="255,230,230" fill="1" layer="-1.00" shape="1015.22,463.83 1020.65,446.92 1009.16,443.26 1006.61,451.21 1009.06,451.99 1006.18,460.94 1015.22,463.83"/>
    <poly id="179076534" type="building" color="255,230,230" fill="1" layer="-1.00" shape="993.53,447.96 992.30,447.57 989.59,455.98 980.24,453.00 982.91,444.66 981.82,444.30 984.67,435.44 996.36,439.16 993.53,447.96"/>
    <poly id="179076535" type="building" color="255,230,230" fill="1" layer="-1.00" shape="1006.61,451.21 1004.50,450.53 1001.54,459.75 991.54,456.56 994.23,448.19 993.53,447.96 996.36,439.16 1009.16,443.26 1006.61,451.21"/>
    <poly id="179222093" type="building" color="255,230,230" fill="1" layer="-1.00" shape="1686.01,820.97 1688.60,812.71 1695.67,814.96 1698.01,807.46 1704.94,809.84 1707.14,802.81 1712.05,804.38 1715.43,805.46 1717.40,804.40 1720.05,805.39 1720.81,802.73 1725.58,801.43 1745.76,807.37 1744.28,814.69 1750.28,816.60 1746.84,828.94 1765.09,835.22 1755.74,863.98 1707.06,849.93 1686.63,843.30 1689.10,836.23 1681.96,833.75 1686.01,820.97"/>
    <poly id="179222094" type="building" color="255,230,230" fill="1" layer="-1.00" shape="1599.18,782.00 1602.56,789.44 1605.32,790.01 1604.24,792.42 1608.12,800.27 1610.69,800.55 1610.04,803.12 1613.60,810.81 1616.08,811.51 1615.23,814.02 1618.43,820.00 1619.34,821.71 1639.19,827.77 1642.00,820.82 1648.46,823.01 1652.71,810.68 1648.51,803.18 1646.78,802.61 1647.16,800.41 1643.10,792.52 1641.16,791.88 1641.61,789.89 1637.87,782.07 1635.67,781.28 1636.06,778.63 1632.60,771.34 1611.80,764.93 1609.93,771.17 1602.40,769.49 1599.18,782.00"/>
    <poly id="179222095" type="landuse" color="194,194,130" fill="1" layer="-3.00" shape="1658.16,791.99 1659.43,787.52 1654.89,786.25 1653.63,790.72 1658.16,791.99"/>
    <poly id="179222096" type="landuse" color="194,194,130" fill="1" layer="-3.00" shape="1649.99,789.46 1651.25,784.99 1646.72,783.72 1645.46,788.20 1649.99,789.46"/>
    <poly id="179222097" type="landuse" color="194,194,130" fill="1" layer="-3.00" shape="1655.70,800.10 1656.97,795.62 1652.43,794.35 1651.17,798.82 1655.70,800.10"/>
    <poly id="179297879" type="landuse" color="194,194,130" fill="1" layer="-3.00" shape="1513.94,448.71 1518.16,448.06 1521.51,447.15 1523.44,446.17 1526.52,444.37 1529.85,441.93 1531.81,439.78 1535.65,437.73 1539.93,436.95 1544.25,437.54 1548.18,439.41 1552.43,445.17 1554.94,451.87 1555.54,459.00 1554.54,462.59 1553.59,463.69 1551.63,464.90 1549.38,465.40 1547.09,465.16 1545.02,464.17 1543.37,462.56 1542.10,461.74 1540.63,461.39 1539.14,461.56 1537.78,462.23 1536.74,463.31 1533.70,465.00 1530.29,465.63 1526.85,465.17 1517.06,462.21 1510.82,460.07 1504.45,458.01 1503.54,456.77 1503.07,455.30 1503.12,453.77 1503.65,452.32 1504.63,451.14 1505.94,450.34 1507.44,450.00 1510.64,449.47 1513.94,448.71"/>
    <poly id="203044178" type="building" color="255,230,230" fill="1" layer="-1.00" shape="1115.52,663.70 1118.72,654.05 1080.55,641.48 1077.35,651.13 1115.52,663.70"/>
    <poly id="203425882" type="landuse" color="194,194,130" fill="1" layer="-3.00" shape="968.35,496.58 958.65,493.59 903.48,476.95 911.10,451.95 976.12,472.06 973.29,480.55 968.35,496.58"/>
    <poly id="203840996" type="building" color="255,230,230" fill="1" layer="-1.00" shape="944.41,703.59 930.92,746.89 936.39,748.58 949.88,705.27 944.41,703.59"/>
    <poly id="203840997" type="building" color="255,230,230" fill="1" layer="-1.00" shape="983.61,750.00 993.90,718.70 988.04,716.79 977.74,748.09 983.61,750.00"/>
    <poly id="203841001" type="building" color="255,230,230" fill="1" layer="-1.00" shape="1027.26,743.13 1031.02,730.58 1016.36,726.22 1012.60,738.78 1027.26,743.13"/>
    <poly id="203841002" type="building" color="255,230,230" fill="1" layer="-1.00" shape="990.70,754.95 1001.53,720.65 995.98,718.91 985.14,753.19 990.70,754.95"/>
    <poly id="203841003" type="building" color="255,230,230" fill="1" layer="-1.00" shape="1008.36,741.73 1014.13,723.74 1003.47,720.34 997.70,738.33 1008.36,741.73"/>
    <poly id="203841004" type="building" color="255,230,230" fill="1" layer="-1.00" shape="1018.65,770.36 1024.76,751.45 995.28,741.98 991.01,755.20 993.17,755.88 991.33,761.59 1018.65,770.36"/>
    <poly id="203841581" type="building" color="255,230,230" fill="1" layer="-1.00" shape="1280.99,962.63 1272.85,988.26 1313.80,1001.16 1321.93,975.53 1280.99,962.63"/>
    <poly id="203841975" type="parking" color="184,184,179" fill="1" layer="-1.00" shape="1463.77,845.21 1472.48,818.31 1458.66,813.86 1449.95,840.76 1463.77,845.21"/>
    <poly id="204498124" type="building" color="255,230,230" fill="1" layer="-1.00" shape="1256.82,900.02 1262.38,882.07 1258.47,880.87 1260.54,874.19 1251.32,871.36 1249.28,877.93 1246.10,876.96 1248.25,870.03 1238.62,867.07 1237.59,870.38 1235.08,869.61 1233.96,873.26 1233.05,872.98 1230.02,882.77 1233.08,883.70 1230.51,892.01 1240.56,895.09 1241.07,893.47 1245.49,894.83 1245.01,896.39 1256.82,900.02"/>
    <poly id="21674178" type="unknown" color="51,128,255" fill="0" layer="-1.00" shape="1552.25,1036.80 1553.92,1032.66 1555.75,1028.39 1567.90,1005.20 1579.96,984.85 1592.63,964.99 1608.96,937.72 1619.72,921.99 1623.27,916.05 1628.14,910.06 1629.34,908.55"/>
    <poly id="217103361" type="parking" color="184,184,179" fill="1" layer="-1.00" shape="1512.44,860.18 1530.14,806.01 1504.72,798.18 1486.99,851.85 1512.44,860.18"/>
    <poly id="217103361#1" type="building" color="255,230,230" fill="1" layer="-1.00" shape="1512.44,860.18 1530.14,806.01 1504.72,798.18 1486.99,851.85 1512.44,860.18"/>
    <poly id="219774019" type="building" color="255,230,230" fill="1" layer="-1.00" shape="1121.22,813.80 1104.30,808.28 1106.67,801.06 1100.73,799.12 1102.14,794.80 1099.86,794.06 1101.71,788.41 1126.87,796.63 1121.22,813.80"/>
    <poly id="22244761" type="landuse" color="194,194,130" fill="1" layer="-3.00" shape="1268.11,760.63 1290.22,767.71 1300.87,734.64 1278.77,727.56 1268.11,760.63"/>
    <poly id="22247260" type="parking" color="184,184,179" fill="1" layer="-1.00" shape="969.63,689.81 976.42,667.28 998.82,673.99 992.03,696.51 969.63,689.81"/>
    <poly id="22247266" type="parking" color="184,184,179" fill="1" layer="-1.00" shape="974.27,712.76 985.90,716.33 975.87,749.29 984.30,752.09 981.24,763.21 1018.58,774.66 1014.33,788.42 997.03,783.12 989.90,806.24 963.01,798.00 973.39,764.34 959.43,760.06 974.27,712.76"/>
    <poly id="22252078" type="building" color="255,230,230" fill="1" layer="-1.00" shape="1471.06,771.30 1488.84,777.10 1500.42,741.81 1482.64,736.01 1471.06,771.30"/>
    <poly id="22252459" type="building" color="255,230,230" fill="1" layer="-1.00" shape="1111.16,885.26 1200.06,913.16 1220.76,846.48 1220.16,846.41 1225.83,828.25 1213.70,824.49 1215.27,819.47 1195.61,813.38 1190.16,830.62 1173.79,825.48 1159.13,820.87 1164.40,804.20 1138.88,795.88 1111.16,885.26"/>
    <poly id="225773554" type="landuse" color="194,194,130" fill="1" layer="-3.00" shape="1463.15,966.18 1453.32,996.14 1377.99,972.30 1385.43,941.59 1463.15,966.18"/>
    <poly id="23110977" type="tourism" color="207,245,201" fill="1" layer="-2.00" shape="1482.88,462.53 1498.37,413.98 1500.93,407.84 1506.86,409.80 1519.04,413.68 1539.16,420.09 1566.44,428.79 1573.54,431.05 1573.03,432.67 1568.88,446.39 1565.12,458.20 1558.32,480.53 1555.01,485.61 1546.85,484.98 1541.72,483.84 1499.03,470.93 1490.49,467.28 1482.88,462.53"/>
    <poly id="231773826" type="building" color="255,230,230" fill="1" layer="-1.00" shape="1557.66,943.59 1562.99,945.31 1562.06,948.40 1574.57,952.75 1575.51,949.66 1583.45,952.27 1593.90,934.72 1597.20,912.52 1590.00,910.47 1590.54,908.11 1576.15,903.85 1575.48,905.95 1570.53,904.49 1559.83,921.69 1557.66,943.59"/>
    <poly id="231773826#1" type="tourism" color="207,245,201" fill="1" layer="-2.00" shape="1557.66,943.59 1562.99,945.31 1562.06,948.40 1574.57,952.75 1575.51,949.66 1583.45,952.27 1593.90,934.72 1597.20,912.52 1590.00,910.47 1590.54,908.11 1576.15,903.85 1575.48,905.95 1570.53,904.49 1559.83,921.69 1557.66,943.59"/>
    <poly id="231773827" type="building" color="255,230,230" fill="1" layer="-1.00" shape="1601.56,1034.89 1659.63,1052.89 1662.25,1044.35 1665.86,1045.55 1671.95,1027.09 1667.94,1025.77 1672.16,1011.99 1676.64,1013.30 1678.14,1008.89 1683.93,990.80 1695.50,954.67 1699.03,955.71 1699.60,954.24 1702.39,947.01 1686.80,942.59 1683.55,941.67 1677.00,939.81 1642.90,928.85 1634.84,953.74 1631.83,953.26 1624.30,977.38 1622.32,976.75 1620.44,976.16 1619.26,979.87 1610.61,1007.00 1607.58,1016.18 1604.52,1025.45 1601.56,1034.89"/>
    <poly id="231773846" type="leisure" color="207,245,201" fill="1" layer="-2.00" shape="1598.33,971.88 1599.94,972.50 1597.80,978.04 1596.25,977.45 1592.40,987.45 1591.17,986.99 1589.57,991.13 1588.59,990.76 1584.95,1000.20 1584.34,999.96 1582.49,1004.75 1581.30,1004.29 1579.64,1008.58 1577.37,1007.72 1577.88,1006.39 1578.57,1006.66 1580.18,1002.49 1581.86,1003.14 1583.61,998.59 1584.11,998.78 1587.83,989.12 1588.55,989.39 1590.36,984.69 1591.56,985.15 1595.27,975.52 1596.72,976.07 1598.33,971.88"/>
    <poly id="240453533" type="parking" color="184,184,179" fill="1" layer="-1.00" shape="1110.47,700.64 1121.71,704.06 1125.55,691.58 1132.16,693.60 1136.92,678.09 1119.07,672.64 1110.47,700.64"/>
    <poly id="241014924" type="parking" color="184,184,179" fill="1" layer="-1.00" shape="1586.65,884.17 1592.99,865.15 1582.41,861.64 1576.07,880.66 1586.65,884.17"/>
    <poly id="241020327" type="building" color="255,230,230" fill="1" layer="-1.00" shape="999.45,688.90 1038.09,700.55 1044.32,680.02 1033.29,676.70 1030.48,685.94 1021.07,683.11 1023.87,673.87 1005.68,668.40 999.45,688.90"/>
    <poly id="241020327#1" type="tourism" color="207,245,201" fill="1" layer="-2.00" shape="999.45,688.90 1038.09,700.55 1044.32,680.02 1033.29,676.70 1030.48,685.94 1021.07,683.11 1023.87,673.87 1005.68,668.40 999.45,688.90"/>
    <poly id="25107922" type="parking" color="184,184,179" fill="1" layer="-1.00" shape="1249.30,929.21 1293.57,943.31 1311.07,888.72 1266.79,874.62 1249.30,929.21"/>
    <poly id="25107923" type="parking" color="184,184,179" fill="1" layer="-1.00" shape="1227.04,823.40 1196.89,813.36 1206.47,784.80 1221.30,789.75 1213.91,811.79 1229.23,816.89 1227.04,823.40"/>
    <poly id="251326820" type="unknown" color="51,128,255" fill="0" layer="-1.00" shape="1750.34,633.96 1753.77,626.00 1776.12,576.85"/>
    <poly id="25491342" type="building" color="255,230,230" fill="1" layer="-1.00" shape="1548.18,893.53 1540.11,918.65 1541.23,919.03 1540.78,920.51 1550.12,923.67 1548.39,929.26 1539.84,955.33 1537.55,962.69 1527.58,959.02 1523.76,970.56 1566.22,983.29 1569.65,965.88 1573.00,967.40 1582.31,953.12 1584.34,951.89 1608.56,913.61 1566.21,900.51 1563.51,908.27 1558.07,906.71 1560.79,897.67 1557.53,896.59 1548.18,893.53"/>
    <poly id="25491342#1" type="tourism" color="207,245,201" fill="1" layer="-2.00" shape="1548.18,893.53 1540.11,918.65 1541.23,919.03 1540.78,920.51 1550.12,923.67 1548.39,929.26 1539.84,955.33 1537.55,962.69 1527.58,959.02 1523.76,970.56 1566.22,983.29 1569.65,965.88 1573.00,967.40 1582.31,953.12 1584.34,951.89 1608.56,913.61 1566.21,900.51 1563.51,908.27 1558.07,906.71 1560.79,897.67 1557.53,896.59 1548.18,893.53"/>
    <poly id="25822542" type="amenity" color="237,199,199" fill="1" layer="-1.00" shape="1193.24,1003.65 1231.04,1015.30 1237.25,995.28 1231.13,993.38 1230.40,995.73 1217.64,991.80 1223.18,973.95 1257.67,984.59 1266.05,957.58 1212.66,941.13 1193.24,1003.65"/>
    <poly id="25822542#1" type="building" color="255,230,230" fill="1" layer="-1.00" shape="1193.24,1003.65 1231.04,1015.30 1237.25,995.28 1231.13,993.38 1230.40,995.73 1217.64,991.80 1223.18,973.95 1257.67,984.59 1266.05,957.58 1212.66,941.13 1193.24,1003.65"/>
    <poly id="264906981" type="building" color="255,230,230" fill="1" layer="-1.00" shape="1709.73,766.08 1710.44,764.13 1711.04,762.53 1711.86,762.82 1713.60,758.11 1713.91,758.23 1716.49,751.20 1721.15,752.91 1718.72,759.48 1720.03,759.96 1718.86,763.15 1720.18,763.63 1718.15,769.17 1714.21,767.69 1709.73,766.08"/>
    <poly id="27767637" type="building" color="255,230,230" fill="1" layer="-1.00" shape="1686.63,843.30 1707.06,849.93 1714.80,846.07 1715.09,843.45 1717.84,844.49 1725.19,840.47 1725.76,838.14 1728.33,838.65 1736.16,834.54 1737.14,832.22 1739.33,832.87 1746.84,828.94 1750.28,816.60 1744.28,814.69 1745.76,807.37 1725.58,801.43 1720.81,802.73 1720.05,805.39 1717.40,804.40 1715.43,805.46 1709.27,808.78 1708.38,811.20 1706.05,810.36 1697.60,814.64 1697.04,817.07 1694.41,816.36 1686.01,820.97 1681.96,833.75 1689.10,836.23 1686.63,843.30"/>
    <poly id="27767638" type="building" color="255,230,230" fill="1" layer="-1.00" shape="1602.40,769.49 1609.93,771.17 1611.80,764.93 1632.60,771.34 1636.06,778.63 1640.54,780.24 1644.51,781.66 1642.14,789.97 1649.66,792.71 1648.38,797.81 1647.58,800.33 1655.07,803.37 1652.71,810.68 1648.46,823.01 1642.00,820.82 1639.19,827.77 1619.34,821.71 1618.43,820.00 1581.13,808.48 1590.56,779.00 1599.18,782.00 1602.40,769.49"/>
    <poly id="27767641" type="building" color="255,230,230" fill="1" layer="-1.00" shape="1678.14,1008.89 1683.93,990.80 1695.50,954.67 1699.03,955.71 1729.49,965.26 1712.19,1020.44 1678.14,1008.89"/>
    <poly id="27767642" type="building" color="255,230,230" fill="1" layer="-1.00" shape="1631.84,963.00 1633.54,957.74 1634.84,953.74 1642.90,928.85 1677.00,939.81 1665.95,973.96 1631.84,963.00"/>
    <poly id="298948111" type="building" color="255,230,230" fill="1" layer="-1.00" shape="1013.59,548.36 1014.05,546.94 1021.30,524.89 1026.38,509.42 1043.76,515.09 1042.96,517.52 1044.89,518.15 1043.96,521.00 1054.35,524.39 1043.96,556.04 1043.30,558.04 1013.59,548.36"/>
    <poly id="299144760" type="building" color="255,230,230" fill="1" layer="-1.00" shape="1119.58,939.62 1073.12,925.32 1081.34,898.79 1127.80,913.09 1119.58,939.62"/>
    <poly id="299145005" type="building" color="255,230,230" fill="1" layer="-1.00" shape="1236.55,770.95 1246.25,739.13 1231.45,734.66 1241.59,701.40 1224.04,696.08 1204.79,759.22 1224.86,765.29 1224.27,767.24 1236.55,770.95"/>
    <poly id="299145006" type="landuse" color="194,194,130" fill="1" layer="-3.00" shape="1284.68,787.68 1288.39,776.07 1270.42,770.87 1273.38,781.79 1284.68,787.68"/>
    <poly id="299146310" type="building" color="255,230,230" fill="1" layer="-1.00" shape="1539.84,955.33 1536.09,954.12 1544.65,928.04 1548.39,929.26 1539.84,955.33"/>
    <poly id="302352938" type="building" color="255,230,230" fill="1" layer="-1.00" shape="1175.37,689.77 1214.96,701.87 1198.79,754.49 1196.05,753.65 1194.47,758.79 1180.17,754.43 1181.74,749.34 1159.18,742.44 1164.41,725.44 1168.67,711.55 1175.37,689.77"/>
    <poly id="302352939" type="building" color="255,230,230" fill="1" layer="-1.00" shape="933.02,543.60 960.76,552.42 958.34,560.08 968.37,563.21 961.45,585.15 957.18,598.67 946.76,595.41 947.53,592.94 936.95,589.63 920.50,584.46 926.04,565.63 933.02,543.60"/>
    <poly id="302352940" type="building" color="255,230,230" fill="1" layer="-1.00" shape="1385.02,951.51 1379.67,967.34 1403.11,975.22 1402.49,977.06 1451.84,993.64 1458.67,973.44 1453.66,971.76 1457.19,961.35 1459.11,955.66 1461.81,956.58 1466.49,942.75 1364.23,908.39 1359.87,921.29 1375.04,926.39 1372.42,934.14 1389.01,939.71 1385.02,951.51"/>
    <poly id="304742256" type="building" color="255,230,230" fill="1" layer="-1.00" shape="1221.14,576.13 1295.39,599.19 1302.33,577.01 1233.75,555.70 1232.87,558.48 1226.19,556.41 1223.29,565.71 1224.30,566.02 1221.14,576.13"/>
    <poly id="314650498" type="parking" color="184,184,179" fill="1" layer="-1.00" shape="1422.66,809.21 1441.33,815.40 1442.88,810.76 1424.21,804.56 1422.66,809.21"/>
    <poly id="314650499" type="parking" color="184,184,179" fill="1" layer="-1.00" shape="1457.16,809.93 1465.78,785.64 1453.51,781.31 1448.38,795.76 1454.43,797.90 1450.94,807.74 1457.16,809.93"/>
    <poly id="314650535" type="building" color="255,230,230" fill="1" layer="-1.00" shape="1205.58,690.56 1203.37,697.29 1209.75,699.36 1211.94,692.63 1205.58,690.56"/>
    <poly id="314650536" type="building" color="255,230,230" fill="1" layer="-1.00" shape="1178.46,679.90 1176.09,687.26 1200.61,695.11 1202.98,687.73 1178.46,679.90"/>
    <poly id="314650537" type="building" color="255,230,230" fill="1" layer="-1.00" shape="1134.83,709.60 1143.62,712.10 1150.49,688.07 1141.70,685.58 1134.83,709.60"/>
    <poly id="314650538" type="building" color="255,230,230" fill="1" layer="-1.00" shape="1154.00,676.78 1144.84,673.91 1141.57,684.26 1150.73,687.14 1154.00,676.78"/>
    <poly id="314650587" type="parking" color="184,184,179" fill="1" layer="-1.00" shape="1132.44,669.65 1158.92,676.92 1161.67,666.99 1135.18,659.72 1132.44,669.65"/>
    <poly id="314650588" type="parking" color="184,184,179" fill="1" layer="-1.00" shape="1203.72,686.61 1177.81,678.16 1179.64,672.59 1205.54,681.02 1203.72,686.61"/>
    <poly id="314652547" type="building" color="255,230,230" fill="1" layer="-1.00" shape="997.63,671.24 1001.09,660.43 979.08,653.44 975.63,664.25 997.63,671.24"/>