<?xml version="1.0" encoding="UTF-8"?>
<!-- generated on 2019-12-24 11:38:27.840000 by $Id$
  options: -n map.net.xml -r map.rou.xml -e 100 -l
-->
<routes xmlns:xsi="http://www.w3.org/2001/XMLSchema-instance" xsi:noNamespaceSchemaLocation="http://sumo.dlr.de/xsd/routes_file.xsd">
    <trip id="0" depart="0.00" from="30775361#4" to="-34121627#1"/>
    <trip id="1" depart="1.00" from="141693460#3" to="-4674907#1"/>
    <trip id="2" depart="2.00" from="-33243155#10" to="-34121627#1"/>
    <trip id="3" depart="3.00" from="5090442#12" to="745505114#1"/>
    <trip id="4" depart="4.00" from="83071003#0" to="83071003#1"/>
    <trip id="5" depart="5.00" from="-61429675#0" to="-34121618#1"/>
    <trip id="6" depart="6.00" from="-34121613#0" to="30775361#1"/>
    <trip id="7" depart="7.00" from="34121685#4" to="4674946#0"/>
    <trip id="8" depart="8.00" from="21674178#1" to="5090442#6"/>
    <trip id="9" depart="9.00" from="-4674904#1" to="553564802#5"/>
    <trip id="10" depart="10.00" from="-34121627#1" to="-34121683#0"/>
    <trip id="11" depart="11.00" from="553564802#5" to="4674904#4"/>
    <trip id="12" depart="12.00" from="34121617#2" to="30775361#1"/>
    <trip id="13" depart="13.00" from="34121685#2" to="690950215#1"/>
    <trip id="14" depart="14.00" from="6694701#1" to="-241014751#1"/>
    <trip id="15" depart="15.00" from="34587650#1" to="34121685#4"/>
    <trip id="16" depart="16.00" from="-141693460#3" to="219905382#1"/>
    <trip id="17" depart="17.00" from="553562816#13" to="-141693460#0"/>
    <trip id="18" depart="18.00" from="34121618#1" to="30775361#1"/>
    <trip id="19" depart="19.00" from="61511324#2" to="219905383#2"/>
    <trip id="20" depart="20.00" from="34121617#2" to="61429670#2"/>
    <trip id="21" depart="21.00" from="-5084883#1" to="-34614465#3"/>
    <trip id="22" depart="22.00" from="-5085196#2" to="217103554#1"/>
    <trip id="23" depart="23.00" from="-251326820#1" to="553562816#2"/>
    <trip id="24" depart="24.00" from="61511324#1" to="292021138#4"/>
    <trip id="25" depart="25.00" from="-6694729#2" to="553562816#11"/>
    <trip id="26" depart="26.00" from="219905382#1" to="61430499#0"/>
    <trip id="27" depart="27.00" from="-458513995#1" to="-690950215#1"/>
    <trip id="28" depart="28.00" from="141693460#0" to="-4674874#8"/>
    <trip id="29" depart="29.00" from="-458513995#0" to="34614465#1"/>
    <trip id="30" depart="30.00" from="34587651#0" to="-553562814#1"/>
    <trip id="31" depart="31.00" from="4674946#0" to="553562816#1"/>
    <trip id="32" depart="32.00" from="36355963#2" to="314651045#5"/>
    <trip id="33" depart="33.00" from="-5084883#1" to="-5084883#1"/>
    <trip id="34" depart="34.00" from="34614465#1" to="314651045#4"/>
    <trip id="35" depart="35.00" from="-5084883#1" to="5090442#7"/>
    <trip id="36" depart="36.00" from="-34121683#0" to="5090442#7"/>
    <trip id="37" depart="37.00" from="458494919#0" to="-4674874#8"/>
    <trip id="38" depart="38.00" from="458454045" to="500300650#5"/>
    <trip id="39" depart="39.00" from="500300650#1" to="292021138#1"/>
    <trip id="40" depart="40.00" from="5084883#1" to="61511324#1"/>
    <trip id="41" depart="41.00" from="241014751#1" to="34121627#1"/>
    <trip id="42" depart="42.00" from="458494919#0" to="-458494919#0"/>
    <trip id="43" depart="43.00" from="745505114#2" to="141693460#3"/>
    <trip id="44" depart="44.00" from="34121683#0" to="34121627#1"/>
    <trip id="45" depart="45.00" from="496548134#0" to="-542553252#0"/>
    <trip id="46" depart="46.00" from="-34614465#1" to="6694701#1"/>
    <trip id="47" depart="47.00" from="61429670#2" to="5090442#12"/>
    <trip id="48" depart="48.00" from="34386967#1" to="34121617#2"/>
    <trip id="49" depart="49.00" from="133658685#9" to="-241014751#2"/>
    <trip id="50" depart="50.00" from="219905383#1" to="30775361#1"/>
    <trip id="51" depart="51.00" from="-5090442#7" to="-61429676#1"/>
    <trip id="52" depart="52.00" from="-61429675#1" to="61429670#0"/>
    <trip id="53" depart="53.00" from="21674178#1" to="314651045#5"/>
    <trip id="54" depart="54.00" from="-500300650#1" to="34614465#1"/>
    <trip id="55" depart="55.00" from="-34121685#3" to="-241014751#2"/>
    <trip id="56" depart="56.00" from="-4674874#8" to="34121615#1"/>
    <trip id="57" depart="57.00" from="141693460#0" to="-34614465#1"/>
    <trip id="58" depart="58.00" from="-33243155#10" to="5090442#6"/>
    <trip id="59" depart="59.00" from="-34121685#4" to="-4674874#8"/>
    <trip id="60" depart="60.00" from="690950215#1" to="-34121615#1"/>
    <trip id="61" depart="61.00" from="-141693460#3" to="-141693460#3"/>
    <trip id="62" depart="62.00" from="34121683#1" to="-4674904#4"/>
    <trip id="63" depart="63.00" from="61429670#0" to="-542553252#0"/>
    <trip id="64" depart="64.00" from="-34121615#1" to="-34121615#0"/>
    <trip id="65" depart="65.00" from="-4674874#8" to="553564802#2"/>
    <trip id="66" depart="66.00" from="-61429676#1" to="34121627#1"/>
    <trip id="67" depart="67.00" from="-458513995#0" to="-690950215#1"/>
    <trip id="68" depart="68.00" from="-34121627#1" to="61511324#1"/>
    <trip id="69" depart="69.00" from="553564802#1" to="61429675#2"/>
    <trip id="70" depart="70.00" from="217103554#1" to="553564802#2"/>
    <trip id="71" depart="71.00" from="25822593#2" to="-458513996#2"/>
    <trip id="72" depart="72.00" from="30775361#5" to="-34121613#0"/>
    <trip id="73" depart="73.00" from="745505114#1" to="542553251#0"/>
    <trip id="74" depart="74.00" from="61429675#2" to="4674946#0"/>
    <trip id="75" depart="75.00" from="-36355963#1" to="33243155#14"/>
    <trip id="76" depart="76.00" from="-141693460#3" to="-33243155#6"/>
    <trip id="77" depart="77.00" from="-61429673#1" to="34386967#1"/>
    <trip id="78" depart="78.00" from="-446810240#0" to="553562816#3"/>
    <trip id="79" depart="79.00" from="693359748#0" to="141693460#3"/>
    <trip id="80" depart="80.00" from="-34121683#0" to="34614465#1"/>
    <trip id="81" depart="81.00" from="-690950215#1" to="-690950215#0"/>
    <trip id="82" depart="82.00" from="500300650#1" to="61511324#1"/>
    <trip id="83" depart="83.00" from="553562816#13" to="5084883#1"/>
    <trip id="84" depart="84.00" from="745505114#2" to="5090442#12"/>
    <trip id="85" depart="85.00" from="-34614465#1" to="251326820#1"/>
    <trip id="86" depart="86.00" from="553564807#2" to="4674946#0"/>
    <trip id="87" depart="87.00" from="-690950215#0" to="553564802#5"/>
    <trip id="88" depart="88.00" from="-4674904#2" to="219905382#1"/>
    <trip id="89" depart="89.00" from="553564807#2" to="-141693460#3"/>
    <trip id="90" depart="90.00" from="61511324#1" to="-61429676#1"/>
    <trip id="91" depart="91.00" from="500300650#1" to="34121627#1"/>
    <trip id="92" depart="92.00" from="-141693460#3" to="553562816#8"/>
    <trip id="93" depart="93.00" from="553562816#8" to="-61429670#0"/>
    <trip id="94" depart="94.00" from="30775361#1" to="30775361#1"/>
    <trip id="95" depart="95.00" from="-6694701#1" to="5090442#12"/>
    <trip id="96" depart="96.00" from="61511324#1" to="21674178#1"/>
    <trip id="97" depart="97.00" from="34386967#1" to="-34121615#1"/>
    <trip id="98" depart="98.00" from="553564802#2" to="4674895#1"/>
    <trip id="99" depart="99.00" from="241014751#2" to="553562816#4"/>
</routes>
